#
#	File Created by: Spartan'20 Export
#

@<TRIPOS>MOLECULE
M0001
5 4
SMALL
USER_CHARGES


@<TRIPOS>ATOM
    1   C1         0.000000000     0.000000000    -1.283125007     C.1   1  noname   -0.311243
    2   C2         0.000000000     0.000000000    -0.097863075     C.1   1  noname   -0.036872
    3   C3         0.000000000     0.000000000     1.293143479     C.1   1  noname    0.429570
    4   N4         0.000000000     0.000000000     2.429249144     N.1   1  noname   -0.410923
    5   H5         0.000000000     0.000000000    -2.341404541       H   1  noname    0.329469


@<TRIPOS>BOND
    1      1      2    3
    2      2      3    1
    3      3      4    3
    4      1      5    1
#
#	File Created by: Spartan'20 Export
#

@<TRIPOS>MOLECULE
M0002
9 8
SMALL
USER_CHARGES


@<TRIPOS>ATOM
    1   C1        -1.905360566     0.325071468    -0.944940468     C.1   1  noname   -0.445995
    2   C2        -0.814036869     0.017101178    -0.593567341     C.1   1  noname   -0.064396
    3   C3         0.526976360    -0.391087678    -0.141242380     C.3   1  noname    0.373572
    4   N4         1.028142933     0.511573898     0.883563055     N.3   1  noname   -0.929827
    5   H5        -2.873038128     0.605837877    -1.264211451       H   1  noname    0.316094
    6   H6         0.473440118    -1.432526238     0.176591890       H   1  noname   -0.013073
    7   H7         1.204421201    -0.354585751    -0.986746933       H   1  noname    0.047440
    8   H8         0.424453780     0.503970422     1.682258524       H   1  noname    0.376160
    9   H9         1.935001171     0.214644824     1.188295104       H   1  noname    0.340025


@<TRIPOS>BOND
    1      1      2    3
    2      2      3    1
    3      3      4    1
    4      1      5    1
    5      3      6    1
    6      3      7    1
    7      4      8    1
    8      4      9    1
#
#	File Created by: Spartan'20 Export
#

@<TRIPOS>MOLECULE
M0003
19 18
SMALL
USER_CHARGES


@<TRIPOS>ATOM
    1   C1        -2.626896780     1.489991881     0.539258015     C.1   1  noname   -0.453307
    2   C2        -1.672701766     1.056016627    -0.015763678     C.1   1  noname   -0.003287
    3   C3        -0.489259328     0.574068715    -0.750266533     C.3   1  noname    0.025061
    4   N4         0.415516654    -0.232633672     0.067116760     N.3   1  noname   -0.137829
    5   C5         1.815685156     0.114678165    -0.114850651     C.3   1  noname   -0.362821
    6   C6         2.122578458     1.488642899     0.316277782     C.1   1  noname    0.152023
    7   C7         2.390843640     2.595665686     0.647308713     C.1   1  noname   -0.503898
    8   C8         0.232424554    -1.665711741    -0.094152814     C.3   1  noname   -0.176922
    9   C9        -1.126467931    -2.132609514     0.221909740     C.1   1  noname    0.088061
   10   C10       -2.209007626    -2.555798960     0.455630432     C.1   1  noname   -0.471936
   11   H11       -3.474669460     1.866108115     1.045809950       H   1  noname    0.314115
   12   H12        0.043505409     1.444632911    -1.107691352       H   1  noname    0.128615
   13   H13       -0.817725859     0.025592473    -1.630813165       H   1  noname    0.108489
   14   H14        2.411005011    -0.565219093     0.482239589       H   1  noname    0.204995
   15   H15        2.143518938    -0.006487549    -1.150358107       H   1  noname    0.156430
   16   H16        2.623343253     3.580267978     0.953123169       H   1  noname    0.332537
   17   H17        0.922315374    -2.169461398     0.572438746       H   1  noname    0.155948
   18   H18        0.474994067    -1.992651533    -1.109180937       H   1  noname    0.118543
   19   H19       -3.179001763    -2.915091989     0.671964341       H   1  noname    0.325182


@<TRIPOS>BOND
    1      1      2    3
    2      2      3    1
    3      3      4    1
    4      4      5    1
    5      5      6    1
    6      6      7    3
    7      4      8    1
    8      8      9    1
    9      9     10    3
   10      1     11    1
   11      3     12    1
   12      3     13    1
   13      5     14    1
   14      5     15    1
   15      7     16    1
   16      8     17    1
   17      8     18    1
   18     10     19    1
#
#	File Created by: Spartan'20 Export
#

@<TRIPOS>MOLECULE
M0004
3 2
SMALL
USER_CHARGES


@<TRIPOS>ATOM
    1   C1         0.000000000     0.000000000    -0.168612040     C.1   1  noname    0.310976
    2   N2         0.000000000     0.000000000    -1.302506692     N.1   1  noname   -0.382905
    3   Cl3        0.000000000     0.000000000     1.471118732      Cl   1  noname    0.071929


@<TRIPOS>BOND
    1      1      2    3
    2      1      3    1
#
#	File Created by: Spartan'20 Export
#

@<TRIPOS>MOLECULE
M0005
13 13
SMALL
USER_CHARGES


@<TRIPOS>ATOM
    1   C1         0.000001455     0.000000000     2.516615871     C.1   1  noname    0.480453
    2   N2         0.000008072     0.000000000     3.650901693     N.1   1  noname   -0.434887
    3   C3         0.000001702     0.000000000     1.080293271     C.2   1  noname   -0.321987
    4   C4         1.193281417     0.000000000     0.372296023     C.2   1  noname    0.277854
    5   C5         1.198479633     0.000000000    -1.003235542     C.2   1  noname    0.056286
    6   C6        -0.000004292     0.000000000    -1.687181588     C.2   1  noname    0.194342
    7   C7        -1.198482979     0.000000000    -1.003245809     C.2   1  noname    0.056295
    8   C8        -1.193280063     0.000000000     0.372288364     C.2   1  noname    0.277846
    9   F9        -2.334235223     0.000000000     1.014787170       F   1  noname   -0.129794
   10   F10       -2.333134891     0.000000000    -1.666607235       F   1  noname   -0.109548
   11   F11        0.000001726     0.000000000    -2.995110595       F   1  noname   -0.107517
   12   F12        2.333128895     0.000000000    -1.666600202       F   1  noname   -0.109547
   13   F13        2.334234548     0.000000000     1.014798576       F   1  noname   -0.129795


@<TRIPOS>BOND
    1      1      2    3
    2      1      3    1
    3      3      4    2
    4      4      5    1
    5      5      6    2
    6      6      7    1
    7      7      8    2
    8      8      9    1
    9      7     10    1
   10      6     11    1
   11      5     12    1
   12      4     13    1
   13      8      3    1
#
#	File Created by: Spartan'20 Export
#

@<TRIPOS>MOLECULE
M0006
6 5
SMALL
USER_CHARGES


@<TRIPOS>ATOM
    1   C1         0.302225209     0.000000000     0.585524767     C.2   1  noname    0.617269
    2   O2        -0.252655197     0.000000000     1.641589477     O.2   1  noname   -0.559182
    3   N3        -0.317812445     0.000000000    -0.612379445    N.am   1  noname   -0.934360
    4   H4         1.389470211     0.000000000     0.496425067       H   1  noname    0.041736
    5   H5         0.191538479     0.000000000    -1.464564819       H   1  noname    0.401206
    6   H6        -1.312766257     0.000000000    -0.646595049       H   1  noname    0.433331


@<TRIPOS>BOND
    1      1      2    2
    2      1      3    am
    3      1      4    1
    4      3      5    1
    5      3      6    1
#
#	File Created by: Spartan'20 Export
#

@<TRIPOS>MOLECULE
M0007
6 5
SMALL
USER_CHARGES


@<TRIPOS>ATOM
    1   C1         0.342315279    -0.000000025    -0.304248124     C.3   1  noname   -0.307397
    2   C2        -0.510545479    -0.000000081     0.888397201     C.1   1  noname    0.412630
    3   N3        -1.146545852     0.000000153     1.826953070     N.1   1  noname   -0.435735
    4   Cl4       -0.614453588     0.000000008    -1.804043862      Cl   1  noname   -0.076311
    5   H5         0.964614828    -0.880657762    -0.303529221       H   1  noname    0.203407
    6   H6         0.964614811     0.880657706    -0.303529063       H   1  noname    0.203407


@<TRIPOS>BOND
    1      1      2    1
    2      2      3    3
    3      1      4    1
    4      1      5    1
    5      1      6    1
#
#	File Created by: Spartan'20 Export
#

@<TRIPOS>MOLECULE
M0008
10 9
SMALL
USER_CHARGES


@<TRIPOS>ATOM
    1   C1         1.277114883    -0.010522763    -0.318663844     C.3   1  noname   -0.402463
    2   C2         0.048674259    -0.589003441     0.365820972     C.2   1  noname    0.787485
    3   O3         0.133151104    -1.595273184     0.989906017     O.2   1  noname   -0.527656
    4   C4        -1.286716017     0.127801355     0.247820332     C.3   1  noname   -0.383402
    5   Cl5       -1.742789477     0.385438142    -1.462553346      Cl   1  noname   -0.122415
    6   Cl6        1.563754660     1.686386883     0.165899402      Cl   1  noname   -0.119945
    7   H7         2.133019121    -0.592283722    -0.022897679       H   1  noname    0.200615
    8   H8         1.166004416    -0.023013360    -1.391362982       H   1  noname    0.189034
    9   H9        -1.250119616     1.096721203     0.719069412       H   1  noname    0.183995
   10   H10       -2.042093334    -0.486251113     0.706961716       H   1  noname    0.194751


@<TRIPOS>BOND
    1      1      2    1
    2      2      3    2
    3      2      4    1
    4      4      5    1
    5      1      6    1
    6      1      7    1
    7      1      8    1
    8      4      9    1
    9      4     10    1
#
#	File Created by: Spartan'20 Export
#

@<TRIPOS>MOLECULE
M0009
10 9
SMALL
USER_CHARGES


@<TRIPOS>ATOM
    1   C1         0.323598734    -0.463131438    -0.056873610     C.3   1  noname    0.059030
    2   C2        -1.097258716    -0.015988471     0.180642977     C.3   1  noname    0.666410
    3   F3        -1.669066920     0.467931388    -0.903182408       F   1  noname   -0.217752
    4   F4        -1.836523860    -1.034573169     0.600198329       F   1  noname   -0.269294
    5   F5        -1.153307790     0.923376125     1.116117477       F   1  noname   -0.213398
    6   N6         1.140805183     0.664306667    -0.438620681     N.3   1  noname   -0.962014
    7   H7         0.299516668    -1.181533914    -0.865622167       H   1  noname    0.107849
    8   H8         0.645792790    -0.983046894     0.843332002       H   1  noname    0.050529
    9   H9         1.331580598     1.258312297     0.343652170       H   1  noname    0.387386
   10   H10        2.014863311     0.364347409    -0.819644088       H   1  noname    0.391255


@<TRIPOS>BOND
    1      1      2    1
    2      2      3    1
    3      2      4    1
    4      2      5    1
    5      1      6    1
    6      1      7    1
    7      1      8    1
    8      6      9    1
    9      6     10    1
#
#	File Created by: Spartan'20 Export
#

@<TRIPOS>MOLECULE
M0010
9 8
SMALL
USER_CHARGES


@<TRIPOS>ATOM
    1   C1         0.587235131     0.355859713    -0.170964451     C.3   1  noname   -0.041764
    2   C2        -0.862275676     0.057257575     0.128468254     C.3   1  noname    0.596073
    3   F3        -1.189898206    -1.153250996    -0.310071870       F   1  noname   -0.212462
    4   F4        -1.130281857     0.096260104     1.417500379       F   1  noname   -0.194272
    5   F5        -1.649786237     0.930871712    -0.477747902       F   1  noname   -0.233394
    6   O6         1.426826338    -0.584566311     0.407953085     O.3   1  noname   -0.604631
    7   H7         0.695925481     0.408806006    -1.249764712       H   1  noname    0.096596
    8   H8         0.830480281     1.320136847     0.250177386       H   1  noname    0.155216
    9   H9         1.291774744    -1.431374651     0.004449831       H   1  noname    0.438638


@<TRIPOS>BOND
    1      1      2    1
    2      2      3    1
    3      2      4    1
    4      2      5    1
    5      1      6    1
    6      1      7    1
    7      1      8    1
    8      6      9    1
#
#	File Created by: Spartan'20 Export
#

@<TRIPOS>MOLECULE
M0011
16 15
SMALL
USER_CHARGES


@<TRIPOS>ATOM
    1   C1         1.203916622     0.441809109    -0.723596810     C.3   1  noname    0.098321
    2   C2         2.129184573    -0.297742356     0.243089916     C.3   1  noname   -0.266604
    3   Cl3        3.730855733    -0.590925580    -0.509071513      Cl   1  noname   -0.184455
    4   N4        -0.098590818     0.754846894    -0.176274303     N.3   1  noname   -0.829055
    5   C5        -0.965926317    -0.360408965     0.148468325     C.3   1  noname    0.328632
    6   C6        -2.401432536     0.140485697     0.185967797     C.3   1  noname   -0.405488
    7   Cl7       -3.535294042    -1.187918177     0.598291155      Cl   1  noname   -0.172141
    8   H8         1.676982915     1.367440008    -1.026716594       H   1  noname    0.095477
    9   H9         1.069863388    -0.154526262    -1.617749749       H   1  noname    0.107620
   10   H10        2.306680387     0.280909784     1.137529267       H   1  noname    0.176204
   11   H11        1.739284599    -1.264105487     0.521729878       H   1  noname    0.155499
   12   H12       -0.021565361     1.390728735     0.592755576       H   1  noname    0.392066
   13   H13       -0.728692009    -0.847551537     1.093064959       H   1  noname    0.015010
   14   H14       -0.872999958    -1.109068149    -0.630216002       H   1  noname    0.079333
   15   H15       -2.696299786     0.531075253    -0.773379590       H   1  noname    0.207845
   16   H16       -2.535967391     0.904951034     0.936107688       H   1  noname    0.201736


@<TRIPOS>BOND
    1      1      2    1
    2      2      3    1
    3      1      4    1
    4      4      5    1
    5      5      6    1
    6      6      7    1
    7      1      8    1
    8      1      9    1
    9      2     10    1
   10      2     11    1
   11      4     12    1
   12      5     13    1
   13      5     14    1
   14      6     15    1
   15      6     16    1
#
#	File Created by: Spartan'20 Export
#

@<TRIPOS>MOLECULE
M0012
9 8
SMALL
USER_CHARGES


@<TRIPOS>ATOM
    1   C1         0.507039287    -0.419046744     0.292191114     C.3   1  noname    0.206361
    2   C2        -0.856363028    -0.092364522    -0.289417349     C.3   1  noname   -0.270978
    3   Cl3       -1.349458876     1.590066944     0.121896971      Cl   1  noname   -0.171761
    4   O4         1.529867230     0.339877949    -0.271855078     O.3   1  noname   -0.659032
    5   H5         0.481290639    -0.316393532     1.373479609       H   1  noname    0.042527
    6   H6         0.726991612    -1.454339295     0.060108658       H   1  noname    0.086665
    7   H7        -1.620352255    -0.744299989     0.106328055       H   1  noname    0.149125
    8   H8        -0.840216932    -0.152982572    -1.365965870       H   1  noname    0.184315
    9   H9         1.421202323     1.249481762    -0.026766109       H   1  noname    0.432777


@<TRIPOS>BOND
    1      1      2    1
    2      2      3    1
    3      1      4    1
    4      1      5    1
    5      1      6    1
    6      2      7    1
    7      2      8    1
    8      4      9    1
#
#	File Created by: Spartan'20 Export
#

@<TRIPOS>MOLECULE
M0013
15 14
SMALL
USER_CHARGES


@<TRIPOS>ATOM
    1   C1         1.044106265     0.533453974    -0.515412575     C.3   1  noname    0.012212
    2   C2         2.158786158     0.941090203     0.421243636     C.3   1  noname   -0.279896
    3   Cl3        2.976265817    -0.474162511     1.155276796      Cl   1  noname   -0.154828
    4   O4         0.000000108    -0.000002959     0.231979084     O.3   1  noname   -0.253275
    5   C5        -1.044110994    -0.533437937    -0.515414714     C.3   1  noname    0.012206
    6   C6        -2.158775725    -0.941104222     0.421245328     C.3   1  noname   -0.279888
    7   Cl7       -2.976292529     0.474130693     1.155254225      Cl   1  noname   -0.154830
    8   H8         0.710193388     1.421667984    -1.051563987       H   1  noname    0.086320
    9   H9         1.409913817    -0.183224792    -1.246253934       H   1  noname    0.099201
   10   H10        2.915658073     1.497390120    -0.110465117       H   1  noname    0.173011
   11   H11        1.769946202     1.537325315     1.231195833       H   1  noname    0.190620
   12   H12       -0.710202716    -1.421638579    -1.051588846       H   1  noname    0.086319
   13   H13       -1.409918440     0.183258430    -1.246238119       H   1  noname    0.099202
   14   H14       -2.915634636    -1.497418660    -0.110461634       H   1  noname    0.173009
   15   H15       -1.769934789    -1.537327058     1.231204024       H   1  noname    0.190619


@<TRIPOS>BOND
    1      1      2    1
    2      2      3    1
    3      1      4    1
    4      4      5    1
    5      5      6    1
    6      6      7    1
    7      1      8    1
    8      1      9    1
    9      2     10    1
   10      2     11    1
   11      5     12    1
   12      5     13    1
   13      6     14    1
   14      6     15    1
#
#	File Created by: Spartan'20 Export
#

@<TRIPOS>MOLECULE
M0014
11 10
SMALL
USER_CHARGES


@<TRIPOS>ATOM
    1   C1         0.000004997     0.000018239     0.641105460     C.3   1  noname   -0.185334
    2   C2        -1.108629242     0.598456926    -0.198991393     C.3   1  noname    0.097116
    3   F3        -1.692567056    -0.391480950    -0.952856838       F   1  noname   -0.264796
    4   C4         1.108616874    -0.598475341    -0.198993879     C.3   1  noname    0.097148
    5   F5         1.692677718     0.391438188    -0.952768360       F   1  noname   -0.264799
    6   H6        -0.412916386    -0.772646918     1.283286611       H   1  noname    0.091991
    7   H7         0.412989577     0.772747186     1.283170949       H   1  noname    0.091989
    8   H8        -0.728836336     1.350669353    -0.875549327       H   1  noname    0.100341
    9   H9        -1.878058282     1.035423375     0.423608491       H   1  noname    0.068011
   10   H10        1.877961659    -1.035564788     0.423592493       H   1  noname    0.068002
   11   H11        0.728756478    -1.350585270    -0.875604206       H   1  noname    0.100331


@<TRIPOS>BOND
    1      1      2    1
    2      2      3    1
    3      1      4    1
    4      4      5    1
    5      1      6    1
    6      1      7    1
    7      2      8    1
    8      2      9    1
    9      4     10    1
   10      4     11    1
#
#	File Created by: Spartan'20 Export
#

@<TRIPOS>MOLECULE
M0015
17 16
SMALL
USER_CHARGES


@<TRIPOS>ATOM
    1   C1         1.340431053    -1.142046324     0.325918150     C.3   1  noname   -0.682046
    2   C2         0.592441627     0.155694944     0.122331976     C.2   1  noname    0.714605
    3   N3         1.157062512     1.313293157     0.078080610     N.2   1  noname   -0.697072
    4   C4         2.471590795     1.425145021     0.250452680     C.1   1  noname    0.627715
    5   N5         3.593180055     1.585121453     0.387060732     N.1   1  noname   -0.603104
    6   N6        -0.743153236     0.112303318    -0.011135566   N.pl3   1  noname   -0.009082
    7   C7        -1.494731715    -1.112767047    -0.211847233     C.3   1  noname   -0.532714
    8   C8        -1.456734362     1.354698947    -0.275417864     C.3   1  noname   -0.571023
    9   H9         0.967841699    -1.663116317     1.200503669       H   1  noname    0.192882
   10   H10        2.392606849    -0.950605864     0.461790277       H   1  noname    0.198981
   11   H11        1.218998180    -1.788685385    -0.535334722       H   1  noname    0.202834
   12   H12       -2.445494762    -1.030763999     0.297500425       H   1  noname    0.192555
   13   H13       -1.684857659    -1.293393293    -1.266378424       H   1  noname    0.186918
   14   H14       -0.979585066    -1.965794366     0.196642145       H   1  noname    0.178457
   15   H15       -1.254817359     1.718927850    -1.276274828       H   1  noname    0.197089
   16   H16       -1.157817878     2.114067640     0.429586989       H   1  noname    0.193491
   17   H17       -2.516960733     1.167920265    -0.173479015       H   1  noname    0.209514


@<TRIPOS>BOND
    1      1      2    1
    2      2      3    2
    3      3      4    1
    4      4      5    3
    5      2      6    1
    6      6      7    1
    7      6      8    1
    8      1      9    1
    9      1     10    1
   10      1     11    1
   11      7     12    1
   12      7     13    1
   13      7     14    1
   14      8     15    1
   15      8     16    1
   16      8     17    1
#
#	File Created by: Spartan'20 Export
#

@<TRIPOS>MOLECULE
M0016
18 18
SMALL
USER_CHARGES


@<TRIPOS>ATOM
    1   C1        -0.097317299    -0.037848771     3.494165470     C.3   1  noname   -0.234124
    2   N2        -0.469051921    -0.067014993     2.101840135     N.2   1  noname   -0.414991
    3   C3         0.426831790     0.035726200     1.236127808     C.2   1  noname    0.240926
    4   C4         0.153348825     0.017848691    -0.218943300     C.2   1  noname    0.011030
    5   C5        -1.142891196    -0.119663253    -0.712276530     C.2   1  noname   -0.087005
    6   C6        -1.369410100    -0.132917569    -2.074220632     C.2   1  noname   -0.141351
    7   C7        -0.307334081    -0.009211359    -2.962148528     C.2   1  noname   -0.138490
    8   C8         0.981918939     0.127576316    -2.480457309     C.2   1  noname   -0.112598
    9   C9         1.208712650     0.140656848    -1.112200204     C.2   1  noname   -0.195071
   10   H10       -0.612817234     0.781244892     3.984103747       H   1  noname    0.132455
   11   H11        0.974024260     0.076440258     3.656767022       H   1  noname    0.089414
   12   H12       -0.425658753    -0.955516581     3.970436068       H   1  noname    0.133998
   13   H13        1.474712650     0.145814923     1.508658751       H   1  noname    0.074132
   14   H14       -1.955829048    -0.214421042    -0.017890518       H   1  noname    0.107550
   15   H15       -2.371828071    -0.239461769    -2.448799258       H   1  noname    0.136536
   16   H16       -0.488369004    -0.019972857    -4.022233125       H   1  noname    0.134995
   17   H17        1.807492777     0.223635613    -3.162660006       H   1  noname    0.131452
   18   H18        2.213464814     0.247084453    -0.740269590       H   1  noname    0.131140


@<TRIPOS>BOND
    1      1      2    1
    2      2      3    2
    3      3      4    1
    4      4      5    2
    5      5      6    1
    6      6      7    2
    7      7      8    1
    8      8      9    2
    9      9      4    1
   10      1     10    1
   11      1     11    1
   12      1     12    1
   13      3     13    1
   14      5     14    1
   15      6     15    1
   16      7     16    1
   17      8     17    1
   18      9     18    1
#
#	File Created by: Spartan'20 Export
#

@<TRIPOS>MOLECULE
M0017
12 12
SMALL
USER_CHARGES


@<TRIPOS>ATOM
    1   C1        -1.271199797     0.000000000    -0.661618999     C.2   1  noname   -0.311703
    2   C2        -1.271199668     0.000000000     0.661618860     C.2   1  noname   -0.311705
    3   C3        -0.000000524     0.000000000     1.437047513     C.2   1  noname    0.788341
    4   O4         0.000004185     0.000000000     2.630993651     O.2   1  noname   -0.552674
    5   C5         1.271198405     0.000000000     0.661618959     C.2   1  noname   -0.311705
    6   C6         1.271198244     0.000000000    -0.661618770     C.2   1  noname   -0.311705
    7   C7        -0.000001088     0.000000000    -1.437045620     C.2   1  noname    0.788340
    8   O8         0.000001420     0.000000000    -2.630992791     O.2   1  noname   -0.552674
    9   H9        -2.174975171     0.000000000    -1.242635832       H   1  noname    0.193871
   10   H10       -2.174977804     0.000000000     1.242633166       H   1  noname    0.193871
   11   H11        2.174976825     0.000000000     1.242635734       H   1  noname    0.193871
   12   H12        2.174974973     0.000000000    -1.242635870       H   1  noname    0.193871


@<TRIPOS>BOND
    1      1      2    2
    2      2      3    1
    3      3      4    2
    4      3      5    1
    5      5      6    2
    6      6      7    1
    7      7      8    2
    8      7      1    1
    9      1      9    1
   10      2     10    1
   11      5     11    1
   12      6     12    1
#
#	File Created by: Spartan'20 Export
#

@<TRIPOS>MOLECULE
M0018
10 10
SMALL
USER_CHARGES


@<TRIPOS>ATOM
    1   C1         1.198012518     0.252651792    -0.651474908     C.3   1  noname   -0.213653
    2   C2         0.287675227    -0.380103520     0.284753671     C.3   1  noname    0.157789
    3   O3         0.700799392    -1.044245810    -0.876495451     O.3   1  noname   -0.337494
    4   C4        -1.175527566    -0.034780896     0.312966907     C.3   1  noname   -0.315938
    5   Cl5       -1.501681631     1.222990037     1.547355673      Cl   1  noname   -0.159936
    6   H6         2.248219694     0.306357206    -0.423096769       H   1  noname    0.160341
    7   H7         0.833104265     1.005969526    -1.329131181       H   1  noname    0.179095
    8   H8         0.682200487    -0.784422999     1.202029436       H   1  noname    0.124258
    9   H9        -1.773198586    -0.893948554     0.573448639       H   1  noname    0.200464
   10   H10       -1.499603801     0.349533218    -0.640356017       H   1  noname    0.205075


@<TRIPOS>BOND
    1      1      2    1
    2      2      3    1
    3      2      4    1
    4      4      5    1
    5      3      1    1
    6      1      6    1
    7      1      7    1
    8      2      8    1
    9      4      9    1
   10      4     10    1
#
#	File Created by: Spartan'20 Export
#

@<TRIPOS>MOLECULE
M0019
26 28
SMALL
USER_CHARGES


@<TRIPOS>ATOM
    1   C1        -0.000002066     0.000000468     1.791355880     C.3   1  noname   -0.853516
    2   C2        -0.000000087    -1.255829313     0.903649871     C.3   1  noname    0.664485
    3   C3        -1.255501925    -1.250716523     0.013799756     C.3   1  noname   -0.826523
    4   C4        -1.238454607    -0.000001111    -0.858138790     C.3   1  noname    1.090468
    5   C5        -1.255504114     1.250716129     0.013799957     C.3   1  noname   -0.826521
    6   C6         0.000000064     1.255829835     0.903650375     C.3   1  noname    0.664481
    7   C7         1.255506019     1.250715994     0.013800672     C.3   1  noname   -0.826517
    8   C8         1.238452560    -0.000001033    -0.858139872     C.3   1  noname    1.090467
    9   C9         1.255503698    -1.250715891     0.013800455     C.3   1  noname   -0.826521
   10   C10       -0.000000581     0.000000418    -1.750201706     C.3   1  noname   -0.820269
   11   F11        2.359110255    -0.000001853    -1.662387131       F   1  noname   -0.389612
   12   F12       -2.359117720    -0.000001686    -1.662377661       F   1  noname   -0.389612
   13   H13        0.873411359     0.000000696     2.438337068       H   1  noname    0.193500
   14   H14       -0.873419174    -0.000000141     2.438330951       H   1  noname    0.193501
   15   H15        0.000000773    -2.146436644     1.523324590       H   1  noname   -0.003851
   16   H16       -1.285320340    -2.132225411    -0.619877155       H   1  noname    0.182699
   17   H17       -2.157414553    -1.256658518     0.618494525       H   1  noname    0.191658
   18   H18       -2.157413428     1.256655360     0.618497286       H   1  noname    0.191658
   19   H19       -1.285328531     2.132227624    -0.619875232       H   1  noname    0.182699
   20   H20        0.000001538     2.146439948     1.523321452       H   1  noname   -0.003851
   21   H21        1.285331579     2.132225751    -0.619875598       H   1  noname    0.182698
   22   H22        2.157416493     1.256658811     0.618498737       H   1  noname    0.191657
   23   H23        1.285321988    -2.132222616    -0.619877348       H   1  noname    0.182698
   24   H24        2.157417712    -1.256661883     0.618495823       H   1  noname    0.191658
   25   H25        0.000001830    -0.876268387    -2.390200325       H   1  noname    0.186234
   26   H26        0.000001258     0.876269975    -2.390206579       H   1  noname    0.186234


@<TRIPOS>BOND
    1      1      2    1
    2      2      3    1
    3      3      4    1
    4      4      5    1
    5      5      6    1
    6      6      7    1
    7      7      8    1
    8      8      9    1
    9      8     10    1
   10      8     11    1
   11      4     12    1
   12      6      1    1
   13      9      2    1
   14     10      4    1
   15      1     13    1
   16      1     14    1
   17      2     15    1
   18      3     16    1
   19      3     17    1
   20      5     18    1
   21      5     19    1
   22      6     20    1
   23      7     21    1
   24      7     22    1
   25      9     23    1
   26      9     24    1
   27     10     25    1
   28     10     26    1
#
#	File Created by: Spartan'20 Export
#

@<TRIPOS>MOLECULE
M0020
26 28
SMALL
USER_CHARGES


@<TRIPOS>ATOM
    1   C1         1.448973686     0.000000703    -1.038512566     C.3   1  noname   -0.873435
    2   C2         0.725756902     1.257069215    -0.527334579     C.3   1  noname    0.768193
    3   C3        -0.724505516     1.254836668    -1.038573426     C.3   1  noname   -0.868614
    4   C4        -1.451577961     0.000001732    -0.527305981     C.3   1  noname    0.796523
    5   C5        -0.724506210    -1.254833515    -1.038571089     C.3   1  noname   -0.868617
    6   C6         0.725755116    -1.257065949    -0.527333543     C.3   1  noname    0.768198
    7   C7         0.721754492    -1.250144709     1.011232146     C.3   1  noname   -0.858429
    8   C8         0.000014801    -0.000001175     1.500680847     C.3   1  noname    1.188892
    9   C9         0.721754269     1.250144266     1.011232201     C.3   1  noname   -0.858427
   10   C10       -1.443535581    -0.000001145     1.011326361     C.3   1  noname   -0.858225
   11   F11        0.000040156     0.000002697     2.882792386       F   1  noname   -0.414106
   12   H12        1.472469981    -0.000000469    -2.125622609       H   1  noname    0.190763
   13   H13        2.482585170    -0.000001092    -0.700403660       H   1  noname    0.181130
   14   H14        1.238966716     2.146056943    -0.882477709       H   1  noname   -0.034882
   15   H15       -1.241324633     2.150045563    -0.700690200       H   1  noname    0.178004
   16   H16       -0.736102170     1.275008805    -2.125696537       H   1  noname    0.187144
   17   H17       -2.478075086     0.000003547    -0.882417359       H   1  noname   -0.045344
   18   H18       -0.736105260    -1.275015759    -2.125693919       H   1  noname    0.187145
   19   H19       -1.241324030    -2.150039004    -0.700677251       H   1  noname    0.178003
   20   H20        1.238964286    -2.146053019    -0.882478690       H   1  noname   -0.034883
   21   H21        1.735834678    -1.256990558     1.401006662       H   1  noname    0.182303
   22   H22        0.220684388    -2.131827492     1.401083407       H   1  noname    0.182595
   23   H23        0.220684373     2.131825604     1.401087613       H   1  noname    0.182595
   24   H24        1.735833640     1.256987384     1.401008101       H   1  noname    0.182303
   25   H25       -1.956505823    -0.874816801     1.401163711       H   1  noname    0.180585
   26   H26       -1.956510385     0.874807562     1.401175681       H   1  noname    0.180586


@<TRIPOS>BOND
    1      1      2    1
    2      2      3    1
    3      3      4    1
    4      4      5    1
    5      5      6    1
    6      6      7    1
    7      7      8    1
    8      8      9    1
    9      8     10    1
   10      8     11    1
   11      6      1    1
   12      9      2    1
   13     10      4    1
   14      1     12    1
   15      1     13    1
   16      2     14    1
   17      3     15    1
   18      3     16    1
   19      4     17    1
   20      5     18    1
   21      5     19    1
   22      6     20    1
   23      7     21    1
   24      7     22    1
   25      9     23    1
   26      9     24    1
   27     10     25    1
   28     10     26    1
#
#	File Created by: Spartan'20 Export
#

@<TRIPOS>MOLECULE
M0021
28 30
SMALL
USER_CHARGES


@<TRIPOS>ATOM
    1   C1         0.738595814    -1.254299386    -1.261792596     C.3   1  noname   -0.886386
    2   C2         1.449393110     0.000009893    -0.730026830     C.3   1  noname    0.856162
    3   C3         0.738590549     1.254310735    -1.261813319     C.3   1  noname   -0.886389
    4   C4        -0.724453178     1.255132239    -0.791636638     C.3   1  noname    0.728444
    5   C5        -1.432002531     0.000005390    -1.326066878     C.3   1  noname   -0.844588
    6   C6        -0.724450560    -1.255114579    -0.791626894     C.3   1  noname    0.728440
    7   C7        -0.771450904    -1.247918910     0.744153832     C.3   1  noname   -0.770872
    8   C8        -0.067335852     0.000005703     1.298673034     C.3   1  noname    1.309700
    9   C9         1.393967323     0.000000038     0.805865773     C.3   1  noname   -0.928484
   10   C10       -0.771448608     1.247926607     0.744144830     C.3   1  noname   -0.770878
   11   N11       -0.190619446    -0.000014256     2.750756600     N.3   1  noname   -1.157331
   12   H12        1.245955142    -2.149625904    -0.908341997       H   1  noname    0.176890
   13   H13        0.781990107    -1.276124776    -2.348605768       H   1  noname    0.186503
   14   H14        2.486255567     0.000009031    -1.056714884       H   1  noname   -0.058996
   15   H15        0.781961034     1.276095117    -2.348627902       H   1  noname    0.186504
   16   H16        1.245958254     2.149652211    -0.908410056       H   1  noname    0.176892
   17   H17       -1.227205135     2.144337841    -1.163253152       H   1  noname   -0.035698
   18   H18       -2.475370227     0.000005854    -1.018580686       H   1  noname    0.170687
   19   H19       -1.423211626    -0.000005659    -2.414004836       H   1  noname    0.186726
   20   H20       -1.227200075    -2.144319147    -1.163249111       H   1  noname   -0.035699
   21   H21       -1.798386980    -1.260640441     1.097743490       H   1  noname    0.157112
   22   H22       -0.290395806    -2.143298601     1.136310991       H   1  noname    0.145679
   23   H23        1.910311991    -0.874438933     1.199914830       H   1  noname    0.159748
   24   H24        1.910328490     0.874414450     1.199945419       H   1  noname    0.159748
   25   H25       -0.290414206     2.143306492     1.136328332       H   1  noname    0.145681
   26   H26       -1.798391357     1.260629581     1.097716232       H   1  noname    0.157110
   27   H27        0.264512428     0.804939552     3.140606201       H   1  noname    0.371646
   28   H28        0.264516681    -0.804980141     3.140591984       H   1  noname    0.371648


@<TRIPOS>BOND
    1      1      2    1
    2      2      3    1
    3      3      4    1
    4      4      5    1
    5      5      6    1
    6      6      7    1
    7      7      8    1
    8      8      9    1
    9      8     10    1
   10      8     11    1
   11      6      1    1
   12      9      2    1
   13     10      4    1
   14      1     12    1
   15      1     13    1
   16      2     14    1
   17      3     15    1
   18      3     16    1
   19      4     17    1
   20      5     18    1
   21      5     19    1
   22      6     20    1
   23      7     21    1
   24      7     22    1
   25      9     23    1
   26      9     24    1
   27     10     25    1
   28     10     26    1
   29     11     27    1
   30     11     28    1
#
#	File Created by: Spartan'20 Export
#

@<TRIPOS>MOLECULE
M0022
49 55
SMALL
USER_CHARGES


@<TRIPOS>ATOM
    1   C1         4.154030535     0.000012948    -0.445906622     C.3   1  noname   -0.965216
    2   C2         3.627753450    -0.000020091     0.998317636     C.3   1  noname    0.927448
    3   C3         2.763280321    -1.246954613     1.229801399     C.3   1  noname   -0.942415
    4   C4         1.578893590    -1.253007055     0.247002767     C.3   1  noname    0.726107
    5   C5         2.109799079    -1.247805726    -1.196734013     C.3   1  noname   -0.959007
    6   C6         2.973286136     0.000045768    -1.430376109     C.3   1  noname    0.901150
    7   C7         2.109814045     1.247897399    -1.196673892     C.3   1  noname   -0.959001
    8   C8         1.578900636     1.253018882     0.247060293     C.3   1  noname    0.726108
    9   C9         2.763284851     1.246906367     1.229863218     C.3   1  noname   -0.942422
   10   C10        0.737204788     0.000001491     0.493056130     C.3   1  noname   -0.063907
   11   C11       -0.737211177     0.000002760     0.493051701     C.3   1  noname   -0.063864
   12   O12       -0.000014553     0.000001049     1.699684160     O.3   1  noname   -0.480987
   13   C13       -1.578891868    -1.253015520     0.247033809     C.3   1  noname    0.726097
   14   C14       -2.763266809    -1.246904971     1.229847813     C.3   1  noname   -0.942426
   15   C15       -3.627741539     0.000020335     0.998311744     C.3   1  noname    0.927451
   16   C16       -4.154035093    -0.000013372    -0.445907149     C.3   1  noname   -0.965219
   17   C17       -2.973300672    -0.000046878    -1.430389928     C.3   1  noname    0.901147
   18   C18       -2.109826863    -1.247899549    -1.196694373     C.3   1  noname   -0.958999
   19   C19       -2.109807777     1.247803406    -1.196757620     C.3   1  noname   -0.959005
   20   C20       -1.578888664     1.253009651     0.246975640     C.3   1  noname    0.726098
   21   C21       -2.763267046     1.246957249     1.229784978     C.3   1  noname   -0.942419
   22   H22        4.779971364    -0.873459272    -0.615830382       H   1  noname    0.195816
   23   H23        4.779979439     0.873487434    -0.615786501       H   1  noname    0.195815
   24   H24        4.464159075    -0.000038814     1.692472264       H   1  noname   -0.068522
   25   H25        2.391089100    -1.264563663     2.249464014       H   1  noname    0.209490
   26   H26        3.355232423    -2.148658093     1.088402067       H   1  noname    0.196632
   27   H27        0.990218677    -2.142670777     0.419459631       H   1  noname   -0.033161
   28   H28        2.694368894    -2.148143188    -1.370600974       H   1  noname    0.209418
   29   H29        1.284583594    -1.267885184    -1.904432033       H   1  noname    0.179312
   30   H30        3.347183172     0.000064451    -2.450968696       H   1  noname   -0.054859
   31   H31        1.284604224     1.268031686    -1.904377905       H   1  noname    0.179309
   32   H32        2.694400494     2.148235156    -1.370482954       H   1  noname    0.209416
   33   H33        0.990226089     2.142672592     0.419571240       H   1  noname   -0.033160
   34   H34        2.391084952     1.264461022     2.249523623       H   1  noname    0.209493
   35   H35        3.355245941     2.148613597     1.088519988       H   1  noname    0.196634
   36   H36       -0.990214824    -2.142668762     0.419540972       H   1  noname   -0.033157
   37   H37       -3.355230093    -2.148611944     1.088510522       H   1  noname    0.196635
   38   H38       -2.391054437    -1.264455982     2.249503932       H   1  noname    0.209494
   39   H39       -4.464139112     0.000037195     1.692478830       H   1  noname   -0.068522
   40   H40       -4.779978153     0.873459174    -0.615823391       H   1  noname    0.195817
   41   H41       -4.779986525    -0.873487834    -0.615781491       H   1  noname    0.195816
   42   H42       -3.347206473    -0.000066983    -2.450981089       H   1  noname   -0.054858
   43   H43       -1.284632338    -1.268043057    -1.904421099       H   1  noname    0.179308
   44   H44       -2.694421075    -2.148237619    -1.370483160       H   1  noname    0.209418
   45   H45       -2.694378269     2.148141538    -1.370619229       H   1  noname    0.209418
   46   H46       -1.284601399     1.267880182    -1.904470070       H   1  noname    0.179312
   47   H47       -0.990213066     2.142674755     0.419425455       H   1  noname   -0.033158
   48   H48       -2.391059869     1.264565485     2.249442190       H   1  noname    0.209491
   49   H49       -3.355227175     2.148657378     1.088392663       H   1  noname    0.196633


@<TRIPOS>BOND
    1      1      2    1
    2      2      3    1
    3      3      4    1
    4      4      5    1
    5      5      6    1
    6      6      7    1
    7      7      8    1
    8      8      9    1
    9      8     10    1
   10     10     11    1
   11     11     12    1
   12     11     13    1
   13     13     14    1
   14     14     15    1
   15     15     16    1
   16     16     17    1
   17     17     18    1
   18     17     19    1
   19     19     20    1
   20     20     21    1
   21      6      1    1
   22      9      2    1
   23     10      4    1
   24     12     10    1
   25     20     11    1
   26     18     13    1
   27     21     15    1
   28      1     22    1
   29      1     23    1
   30      2     24    1
   31      3     25    1
   32      3     26    1
   33      4     27    1
   34      5     28    1
   35      5     29    1
   36      6     30    1
   37      7     31    1
   38      7     32    1
   39      8     33    1
   40      9     34    1
   41      9     35    1
   42     13     36    1
   43     14     37    1
   44     14     38    1
   45     15     39    1
   46     16     40    1
   47     16     41    1
   48     17     42    1
   49     18     43    1
   50     18     44    1
   51     19     45    1
   52     19     46    1
   53     20     47    1
   54     21     48    1
   55     21     49    1
#
#	File Created by: Spartan'20 Export
#

@<TRIPOS>MOLECULE
M0023
26 28
SMALL
USER_CHARGES


@<TRIPOS>ATOM
    1   C1         0.691514104     0.000000293    -1.642172780     C.3   1  noname   -0.886445
    2   C2        -0.812008818    -0.000001066    -1.321728681     C.3   1  noname    0.874126
    3   C3        -1.161058446    -1.251645272    -0.500265052     C.3   1  noname   -0.945732
    4   C4        -0.349708246    -1.255135878     0.806110667     C.3   1  noname    0.714409
    5   C5         1.153177763    -1.251833632     0.484589889     C.3   1  noname   -0.855368
    6   C6         1.502102574    -0.000000715    -0.336056086     C.3   1  noname    0.813362
    7   C7         1.153178896     1.251830470     0.484592444     C.3   1  noname   -0.855364
    8   C8        -0.349708400     1.255138526     0.806106572     C.3   1  noname    0.714406
    9   C9        -1.161061283     1.251643066    -0.500267172     C.3   1  noname   -0.945729
   10   C10       -0.706352199     0.000002781     1.597953615     C.3   1  noname   -0.251344
   11   F11       -0.009370300     0.000005409     2.790083174       F   1  noname   -0.258082
   12   H12        0.944438358    -0.873196792    -2.239215955       H   1  noname    0.182066
   13   H13        0.944436113     0.873202889    -2.239208676       H   1  noname    0.182065
   14   H14       -1.383798272    -0.000002103    -2.245538210       H   1  noname   -0.052790
   15   H15       -0.939847333    -2.150383882    -1.069292216       H   1  noname    0.210092
   16   H16       -2.227304730    -1.272498169    -0.284971313       H   1  noname    0.188751
   17   H17       -0.600341195    -2.127428621     1.402527501       H   1  noname   -0.026362
   18   H18        1.408070811    -2.150456722    -0.071779256       H   1  noname    0.183218
   19   H19        1.728726107    -1.272407942     1.403534269       H   1  noname    0.195860
   20   H20        2.563952563     0.000001128    -0.566005407       H   1  noname   -0.050891
   21   H21        1.728718376     1.272396923     1.403541953       H   1  noname    0.195859
   22   H22        1.408080555     2.150456069    -0.071768521       H   1  noname    0.183216
   23   H23       -0.600338417     2.127434158     1.402520304       H   1  noname   -0.026362
   24   H24       -0.939856485     2.150382571    -1.069295406       H   1  noname    0.210091
   25   H25       -2.227306324     1.272492380    -0.284968538       H   1  noname    0.188751
   26   H26       -1.758335770     0.000004132     1.860972881       H   1  noname    0.118198


@<TRIPOS>BOND
    1      1      2    1
    2      2      3    1
    3      3      4    1
    4      4      5    1
    5      5      6    1
    6      6      7    1
    7      7      8    1
    8      8      9    1
    9      8     10    1
   10     10     11    1
   11      6      1    1
   12      9      2    1
   13     10      4    1
   14      1     12    1
   15      1     13    1
   16      2     14    1
   17      3     15    1
   18      3     16    1
   19      4     17    1
   20      5     18    1
   21      5     19    1
   22      6     20    1
   23      7     21    1
   24      7     22    1
   25      8     23    1
   26      9     24    1
   27      9     25    1
   28     10     26    1
#
#	File Created by: Spartan'20 Export
#

@<TRIPOS>MOLECULE
M0024
11 11
SMALL
USER_CHARGES


@<TRIPOS>ATOM
    1   C1        -0.138541461     0.000000041    -0.981117132     C.3   1  noname    0.020304
    2   C2         0.032593782     1.103873385     0.098045025     C.3   1  noname   -0.487028
    3   C3         0.095018947     0.000000056     1.151051934     C.2   1  noname    0.781622
    4   O4         0.150118849     0.000000089     2.330884956     O.2   1  noname   -0.575305
    5   C5         0.032593344    -1.103873050     0.098045145     C.3   1  noname   -0.487027
    6   H6        -1.114231014    -0.000001811    -1.449390411       H   1  noname    0.063625
    7   H7         0.616234861     0.000000329    -1.756138224       H   1  noname    0.060468
    8   H8         0.954689319     1.671742883     0.031982069       H   1  noname    0.156431
    9   H9        -0.791582080     1.796973104     0.222327587       H   1  noname    0.155239
   10   H10       -0.791583048    -1.796971780     0.222328430       H   1  noname    0.155239
   11   H11        0.954688501    -1.671743246     0.031980621       H   1  noname    0.156431


@<TRIPOS>BOND
    1      1      2    1
    2      2      3    1
    3      3      4    2
    4      3      5    1
    5      5      1    1
    6      1      6    1
    7      1      7    1
    8      2      8    1
    9      2      9    1
   10      5     10    1
   11      5     11    1
#
#	File Created by: Spartan'20 Export
#

@<TRIPOS>MOLECULE
M0025
12 12
SMALL
USER_CHARGES


@<TRIPOS>ATOM
    1   C1        -0.606694639    -0.777588677    -0.151657773     C.3   1  noname   -0.142099
    2   C2         0.783066276    -0.619436316     0.460777435     C.3   1  noname   -0.349936
    3   C3         1.219605085     0.748673027    -0.028531174     C.2   1  noname    0.886002
    4   O4         2.310715998     1.199592268    -0.040478676     O.2   1  noname   -0.612702
    5   O5         0.149594269     1.419626832    -0.463896353     O.3   1  noname   -0.448137
    6   C6        -1.049281259     0.681444144    -0.285881912     C.3   1  noname    0.015724
    7   H7        -0.539420225    -1.239707374    -1.130457305       H   1  noname    0.100347
    8   H8        -1.288950138    -1.362582067     0.451448099       H   1  noname    0.085671
    9   H9         0.748107473    -0.590346526     1.546004615       H   1  noname    0.132551
   10   H10        1.503627248    -1.370576547     0.171015383       H   1  noname    0.127371
   11   H11       -1.684771471     0.872473817    -1.137442768       H   1  noname    0.108316
   12   H12       -1.545598617     1.038427419     0.609100429       H   1  noname    0.096892


@<TRIPOS>BOND
    1      1      2    1
    2      2      3    1
    3      3      4    2
    4      3      5    1
    5      5      6    1
    6      6      1    1
    7      1      7    1
    8      1      8    1
    9      2      9    1
   10      2     10    1
   11      6     11    1
   12      6     12    1
#
#	File Created by: Spartan'20 Export
#

@<TRIPOS>MOLECULE
M0026
10 10
SMALL
USER_CHARGES


@<TRIPOS>ATOM
    1   C1         0.237693028    -0.744000302    -0.701607056     C.3   1  noname   -0.327074
    2   C2         0.237692460     0.743996842    -0.701610649     C.3   1  noname   -0.327073
    3   C3        -0.566472227     0.000001125     0.332711403     C.3   1  noname   -0.161538
    4   C4        -0.118887993    -0.000002723     1.711439915     C.1   1  noname    0.359953
    5   N5         0.236545076    -0.000006106     2.790551028     N.1   1  noname   -0.457646
    6   H6        -0.318652653    -1.261173166    -1.462080794       H   1  noname    0.174557
    7   H7         1.123293939    -1.252950814    -0.368312679       H   1  noname    0.193583
    8   H8        -0.318644948     1.261161969    -1.462095128       H   1  noname    0.174556
    9   H9         1.123280617     1.252961287    -0.368299119       H   1  noname    0.193582
   10   H10       -1.635847298     0.000011888     0.229303078       H   1  noname    0.177099


@<TRIPOS>BOND
    1      1      2    1
    2      2      3    1
    3      3      4    1
    4      4      5    3
    5      3      1    1
    6      1      6    1
    7      1      7    1
    8      2      8    1
    9      2      9    1
   10      3     10    1
#
#	File Created by: Spartan'20 Export
#

@<TRIPOS>MOLECULE
M0027
11 11
SMALL
USER_CHARGES


@<TRIPOS>ATOM
    1   C1        -0.816598681    -0.685123368     0.254720382     C.3   1  noname   -0.527325
    2   C2        -0.831827343     0.703534231    -0.326957602     C.3   1  noname   -0.378369
    3   C3         0.346220526     0.241991479     0.456974058     C.3   1  noname    0.390804
    4   N4         1.616234635     0.064603315    -0.191681334     N.3   1  noname   -1.048234
    5   H5        -0.691240456    -1.506147102    -0.430659937       H   1  noname    0.190427
    6   H6        -1.464133394    -0.900006155     1.087188448       H   1  noname    0.179495
    7   H7        -1.486029596     1.439393153     0.105528183       H   1  noname    0.151519
    8   H8        -0.718515373     0.797404919    -1.393746384       H   1  noname    0.176259
    9   H9         0.449751598     0.659549114     1.443389009       H   1  noname    0.068864
   10   H10        1.506380536    -0.075209911    -1.176929077       H   1  noname    0.411836
   11   H11        2.089757549    -0.739989675     0.172174255       H   1  noname    0.384724


@<TRIPOS>BOND
    1      1      2    1
    2      2      3    1
    3      3      4    1
    4      3      1    1
    5      1      5    1
    6      1      6    1
    7      2      7    1
    8      2      8    1
    9      3      9    1
   10      4     10    1
   11      4     11    1
#
#	File Created by: Spartan'20 Export
#

@<TRIPOS>MOLECULE
M0028
14 14
SMALL
USER_CHARGES


@<TRIPOS>ATOM
    1   C1        -1.045001736     0.364893429     0.423104225     C.3   1  noname   -0.294952
    2   C2         0.157120720     1.229424300     0.030876751     C.3   1  noname    0.137487
    3   C3         1.392484126     0.367870378    -0.035738346     C.2   1  noname   -0.444020
    4   C4         1.325523190    -0.950506437    -0.039465595     C.2   1  noname    0.132258
    5   O5         0.186795997    -1.676093729    -0.032583987     O.3   1  noname   -0.394837
    6   C6        -0.992673374    -0.959530317    -0.325467946     C.3   1  noname    0.178236
    7   H7        -1.019976477     0.162954636     1.489599453       H   1  noname    0.134310
    8   H8        -1.981703627     0.869338629     0.206893484       H   1  noname    0.068650
    9   H9         0.296072517     2.026710193     0.755265082       H   1  noname    0.033338
   10   H10       -0.021737977     1.714398339    -0.926949680       H   1  noname    0.034852
   11   H11        2.361287741     0.832326343    -0.059471053       H   1  noname    0.162121
   12   H12        2.191871116    -1.584459427    -0.039555689       H   1  noname    0.129484
   13   H13       -1.039199815    -0.788058899    -1.398472151       H   1  noname    0.063516
   14   H14       -1.810862401    -1.609267437    -0.048034547       H   1  noname    0.059558


@<TRIPOS>BOND
    1      1      2    1
    2      2      3    1
    3      3      4    2
    4      4      5    1
    5      5      6    1
    6      6      1    1
    7      1      7    1
    8      1      8    1
    9      2      9    1
   10      2     10    1
   11      3     11    1
   12      4     12    1
   13      6     13    1
   14      6     14    1
#
#	File Created by: Spartan'20 Export
#

@<TRIPOS>MOLECULE
M0029
14 14
SMALL
USER_CHARGES


@<TRIPOS>ATOM
    1   C1        -0.732863806    -0.236673572    -0.941604447     C.3   1  noname   -0.159495
    2   C2         0.732862691     0.236670793    -0.941606355     C.3   1  noname   -0.159495
    3   C3         1.234336447    -0.109204180     0.465362828     C.3   1  noname   -0.339723
    4   C4        -0.000000872    -0.000008043     1.352188298     C.2   1  noname    0.730740
    5   O5        -0.000002354    -0.000035305     2.541076195     O.2   1  noname   -0.591779
    6   C6        -1.234334901     0.109217358     0.465362060     C.3   1  noname   -0.339724
    7   H7        -0.770690217    -1.311968780    -1.095217709       H   1  noname    0.095043
    8   H8        -1.321213159     0.222923445    -1.726706152       H   1  noname    0.084889
    9   H9         1.321212260    -0.222931425    -1.726704807       H   1  noname    0.084889
   10   H10        0.770688256     1.311964720    -1.095228868       H   1  noname    0.095043
   11   H11        2.032499895     0.521967746     0.836202186       H   1  noname    0.119280
   12   H12        1.583857443    -1.138292517     0.515340109       H   1  noname    0.130525
   13   H13       -1.583841150     1.138311220     0.515330726       H   1  noname    0.130525
   14   H14       -2.032510533    -0.521941460     0.836205934       H   1  noname    0.119280


@<TRIPOS>BOND
    1      1      2    1
    2      2      3    1
    3      3      4    1
    4      4      5    2
    5      4      6    1
    6      6      1    1
    7      1      7    1
    8      1      8    1
    9      2      9    1
   10      2     10    1
   11      3     11    1
   12      3     12    1
   13      6     13    1
   14      6     14    1
#
#	File Created by: Spartan'20 Export
#

@<TRIPOS>MOLECULE
M0030
17 17
SMALL
USER_CHARGES


@<TRIPOS>ATOM
    1   C1        -0.050560642     0.000003902    -1.390162712     C.3   1  noname   -0.315226
    2   C2         0.336665775     1.262433550    -0.615666302     C.3   1  noname    0.029910
    3   C3        -0.293286618     1.281971220     0.785738985     C.3   1  noname   -0.397748
    4   C4        -0.013113317     0.000005648     1.546656040     C.2   1  noname    0.733427
    5   O5         0.390055519     0.000007344     2.669369890     O.2   1  noname   -0.574031
    6   C6        -0.293269049    -1.281967640     0.785743483     C.3   1  noname   -0.397737
    7   C7         0.336650309    -1.262437250    -0.615675638     C.3   1  noname    0.029905
    8   H8         0.430317521    -0.000000529    -2.363736196       H   1  noname    0.086424
    9   H9        -1.124087073     0.000017116    -1.571854913       H   1  noname    0.115153
   10   H10        0.034899579     2.151191927    -1.160687681       H   1  noname    0.047371
   11   H11        1.419493233     1.307942873    -0.521874049       H   1  noname    0.059606
   12   H12       -1.374425380     1.376594740     0.690354593       H   1  noname    0.120757
   13   H13        0.060349245     2.117108830     1.376995478       H   1  noname    0.117231
   14   H14        0.060402825    -2.117096024     1.377000955       H   1  noname    0.117226
   15   H15       -1.374415255    -1.376616751     0.690402636       H   1  noname    0.120754
   16   H16        0.034844449    -2.151185932    -1.160693423       H   1  noname    0.047371
   17   H17        1.419478880    -1.307973024    -0.521911144       H   1  noname    0.059608


@<TRIPOS>BOND
    1      1      2    1
    2      2      3    1
    3      3      4    1
    4      4      5    2
    5      4      6    1
    6      6      7    1
    7      7      1    1
    8      1      8    1
    9      1      9    1
   10      2     10    1
   11      2     11    1
   12      3     12    1
   13      3     13    1
   14      6     14    1
   15      6     15    1
   16      7     16    1
   17      7     17    1
#
#	File Created by: Spartan'20 Export
#

@<TRIPOS>MOLECULE
M0031
18 18
SMALL
USER_CHARGES


@<TRIPOS>ATOM
    1   C1        -0.831036337    -1.186154792     0.076483293     C.3   1  noname   -0.205082
    2   C2         0.601928764    -1.233025269    -0.455197996     C.3   1  noname   -0.007208
    3   C3         1.548356516    -0.201311141     0.183286707     C.3   1  noname   -0.388235
    4   C4         1.405451881     1.192355775    -0.394349785     C.2   1  noname    0.843856
    5   O5         2.279797976     1.717673516    -0.997196225     O.2   1  noname   -0.593976
    6   O6         0.248374336     1.835658541    -0.243017524     O.3   1  noname   -0.465401
    7   C7        -0.838068020     1.342539398     0.519247920     C.3   1  noname    0.064263
    8   C8        -1.542086895     0.153372278    -0.121746651     C.3   1  noname   -0.101347
    9   H9        -1.411714819    -1.968229408    -0.404197092       H   1  noname    0.070152
   10   H10       -0.818409996    -1.424098095     1.139014224       H   1  noname    0.085064
   11   H11        0.606646454    -1.104830060    -1.534916567       H   1  noname    0.073274
   12   H12        1.009166335    -2.220784618    -0.264020565       H   1  noname    0.054718
   13   H13        1.401951076    -0.176166875     1.259869235       H   1  noname    0.133081
   14   H14        2.576906740    -0.478777529     0.002367778       H   1  noname    0.120135
   15   H15       -1.512437303     2.183949407     0.575421260       H   1  noname    0.093925
   16   H16       -0.515276784     1.114129225     1.529677751       H   1  noname    0.073438
   17   H17       -1.671501268     0.366045644    -1.179541267       H   1  noname    0.098640
   18   H18       -2.538048656     0.087654004     0.308815503       H   1  noname    0.050703


@<TRIPOS>BOND
    1      1      2    1
    2      2      3    1
    3      3      4    1
    4      4      5    2
    5      4      6    1
    6      6      7    1
    7      7      8    1
    8      8      1    1
    9      1      9    1
   10      1     10    1
   11      2     11    1
   12      2     12    1
   13      3     13    1
   14      3     14    1
   15      7     15    1
   16      7     16    1
   17      8     17    1
   18      8     18    1
#
#	File Created by: Spartan'20 Export
#

@<TRIPOS>MOLECULE
M0032
19 19
SMALL
USER_CHARGES


@<TRIPOS>ATOM
    1   C1         0.548638682    -1.043390905     1.061430255     C.3   1  noname   -0.091428
    2   C2        -0.956692804    -0.826980752     0.888864545     C.3   1  noname   -0.229019
    3   C3        -1.404580924    -0.520638977    -0.552899683     C.3   1  noname    0.120999
    4   C4        -1.203278583     0.926469989    -0.949064113     C.2   1  noname   -0.022185
    5   S5        -2.492199352     1.931098675    -1.268606595     S.2   1  noname   -0.392580
    6   N6         0.046592605     1.364715079    -1.010095687   N.pl3   1  noname   -0.179684
    7   C7         1.272886931     0.621052245    -0.753522454     C.3   1  noname   -0.059934
    8   C8         1.427393045     0.153793787     0.694088714     C.3   1  noname   -0.115062
    9   H9         0.851013823    -1.898113899     0.458586812       H   1  noname    0.057702
   10   H10        0.745798588    -1.315287878     2.094428032       H   1  noname    0.057605
   11   H11       -1.303300491    -0.034440300     1.546113025       H   1  noname    0.124898
   12   H12       -1.467408074    -1.730899908     1.204998760       H   1  noname    0.075353
   13   H13       -0.866445255    -1.157586873    -1.252266676       H   1  noname    0.074042
   14   H14       -2.454973906    -0.736922375    -0.663340076       H   1  noname    0.018715
   15   H15        0.140684103     2.324969147    -1.260493954       H   1  noname    0.246408
   16   H16        1.344246068    -0.222270623    -1.433645339       H   1  noname    0.090569
   17   H17        2.081645985     1.293857379    -1.005725567       H   1  noname    0.087274
   18   H18        1.222074195     0.991566873     1.354761764       H   1  noname    0.083551
   19   H19        2.467905365    -0.120990684     0.846388236       H   1  noname    0.052778


@<TRIPOS>BOND
    1      1      2    1
    2      2      3    1
    3      3      4    1
    4      4      5    2
    5      4      6    1
    6      6      7    1
    7      7      8    1
    8      8      1    1
    9      1      9    1
   10      1     10    1
   11      2     11    1
   12      2     12    1
   13      3     13    1
   14      3     14    1
   15      6     15    1
   16      7     16    1
   17      7     17    1
   18      8     18    1
   19      8     19    1
#
#	File Created by: Spartan'20 Export
#

@<TRIPOS>MOLECULE
M0033
18 18
SMALL
USER_CHARGES


@<TRIPOS>ATOM
    1   C1        -0.308697296    -0.000000522     1.465150164     C.3   1  noname   -0.147355
    2   C2         0.191012227    -1.265082035     0.759796824     C.3   1  noname   -0.179090
    3   C3        -0.180469536    -1.259682538    -0.727133125     C.3   1  noname   -0.260859
    4   C4         0.326082557     0.000000178    -1.408193244     C.3   1  noname    0.421277
    5   C5        -0.180468937     1.259683083    -0.727133548     C.3   1  noname   -0.260857
    6   C6         0.191009930     1.265081707     0.759796633     C.3   1  noname   -0.179089
    7   F7        -0.099349935     0.000000480    -2.719217227       F   1  noname   -0.350119
    8   H8         0.011994480    -0.000001531     2.502877459       H   1  noname    0.068528
    9   H9        -1.397046279     0.000000049     1.474199313       H   1  noname    0.092664
   10   H10       -0.217992436    -2.150517758     1.236768101       H   1  noname    0.083791
   11   H11        1.272994781    -1.330795576     0.863747709       H   1  noname    0.089936
   12   H12       -1.261451007    -1.296912018    -0.841714971       H   1  noname    0.118670
   13   H13        0.223648078    -2.131658781    -1.232241225       H   1  noname    0.089532
   14   H14        1.411535473    -0.000000103    -1.433260748       H   1  noname    0.031044
   15   H15        0.223649857     2.131657026    -1.232243451       H   1  noname    0.089531
   16   H16       -1.261450069     1.296915345    -0.841714890       H   1  noname    0.118670
   17   H17       -0.217993610     2.150516579     1.236768460       H   1  noname    0.083790
   18   H18        1.272991722     1.330796417     0.863747766       H   1  noname    0.089935


@<TRIPOS>BOND
    1      1      2    1
    2      2      3    1
    3      3      4    1
    4      4      5    1
    5      5      6    1
    6      4      7    1
    7      6      1    1
    8      1      8    1
    9      1      9    1
   10      2     10    1
   11      2     11    1
   12      3     12    1
   13      3     13    1
   14      4     14    1
   15      5     15    1
   16      5     16    1
   17      6     17    1
   18      6     18    1
#
#	File Created by: Spartan'20 Export
#

@<TRIPOS>MOLECULE
M0034
20 20
SMALL
USER_CHARGES


@<TRIPOS>ATOM
    1   C1        -1.608414984     0.416019311     0.625457899     C.3   1  noname   -0.203171
    2   C2        -1.443137962    -0.718359736    -0.386795871     C.3   1  noname   -0.140696
    3   C3        -0.054208986    -1.377619151    -0.269305545     C.3   1  noname   -0.317376
    4   C4         1.030443055    -0.408348716     0.233788441     C.3   1  noname    0.661504
    5   C5         0.726614027     1.017087617    -0.240848863     C.3   1  noname   -0.376887
    6   C6        -0.592827152     1.545689148     0.360025124     C.3   1  noname   -0.081576
    7   N7         2.339831648    -0.920388416    -0.145066264     N.3   1  noname   -1.116101
    8   H8        -1.468153334     0.018729905     1.627916029       H   1  noname    0.082237
    9   H9        -2.619205789     0.811058872     0.594212152       H   1  noname    0.073837
   10   H10       -1.577851036    -0.315007624    -1.387970238       H   1  noname    0.085844
   11   H11       -2.220767446    -1.464351947    -0.254172276       H   1  noname    0.076401
   12   H12        0.245604093    -1.764805739    -1.239926097       H   1  noname    0.104265
   13   H13       -0.091368137    -2.232792194     0.397317952       H   1  noname    0.091902
   14   H14        1.011991769    -0.405449234     1.320506595       H   1  noname   -0.002255
   15   H15        0.669828073     1.015721792    -1.328730722       H   1  noname    0.103020
   16   H16        1.547449969     1.680501558     0.020323854       H   1  noname    0.077632
   17   H17       -0.389736367     2.072383188     1.288176616       H   1  noname    0.051887
   18   H18       -1.025919622     2.277089143    -0.316207054       H   1  noname    0.073780
   19   H19        2.451385953    -0.895246858    -1.141910340       H   1  noname    0.378708
   20   H20        3.068442230    -0.351910917     0.243208608       H   1  noname    0.377045


@<TRIPOS>BOND
    1      1      2    1
    2      2      3    1
    3      3      4    1
    4      4      5    1
    5      5      6    1
    6      4      7    1
    7      6      1    1
    8      1      8    1
    9      1      9    1
   10      2     10    1
   11      2     11    1
   12      3     12    1
   13      3     13    1
   14      4     14    1
   15      5     15    1
   16      5     16    1
   17      6     17    1
   18      6     18    1
   19      7     19    1
   20      7     20    1
#
#	File Created by: Spartan'20 Export
#

@<TRIPOS>MOLECULE
M0035
19 19
SMALL
USER_CHARGES


@<TRIPOS>ATOM
    1   C1        -1.072059148    -0.551806931     0.855550930     C.3   1  noname   -0.342492
    2   C2        -1.261610574     0.813921503     0.193309195     C.3   1  noname    0.061760
    3   C3         0.088996477     1.510045858    -0.053293079     C.3   1  noname   -0.488115
    4   C4         1.224784157     0.533735642    -0.431380526     C.3   1  noname    0.647570
    5   C5         0.660884970    -0.751923987    -1.030705041     C.3   1  noname   -0.493639
    6   C6        -0.254784250    -1.505452993    -0.045370333     C.3   1  noname    0.051978
    7   O7         2.078398643     0.257219976     0.658080493     O.3   1  noname   -0.781003
    8   H8        -0.570978619    -0.410031736     1.812251188       H   1  noname    0.101755
    9   H9        -2.032719596    -0.996460767     1.093547342       H   1  noname    0.094039
   10   H10       -1.897559676     1.447892263     0.804063806       H   1  noname    0.042265
   11   H11       -1.785156464     0.677368246    -0.750228985       H   1  noname    0.058315
   12   H12        0.402578672     2.050799714     0.834275118       H   1  noname    0.136881
   13   H13       -0.027745951     2.251412638    -0.838104532       H   1  noname    0.103288
   14   H14        1.875416499     1.008138296    -1.153418135       H   1  noname   -0.001071
   15   H15        0.099089875    -0.489001477    -1.923789165       H   1  noname    0.126119
   16   H16        1.476429959    -1.392416973    -1.349314789       H   1  noname    0.127260
   17   H17        0.337167414    -2.175540275     0.570561892       H   1  noname    0.036227
   18   H18       -0.929118236    -2.140218417    -0.611523317       H   1  noname    0.056766
   19   H19        1.587985849    -0.137680579     1.365487940       H   1  noname    0.462097


@<TRIPOS>BOND
    1      1      2    1
    2      2      3    1
    3      3      4    1
    4      4      5    1
    5      5      6    1
    6      4      7    1
    7      6      1    1
    8      1      8    1
    9      1      9    1
   10      2     10    1
   11      2     11    1
   12      3     12    1
   13      3     13    1
   14      4     14    1
   15      5     15    1
   16      5     16    1
   17      6     17    1
   18      6     18    1
   19      7     19    1
#
#	File Created by: Spartan'20 Export
#

@<TRIPOS>MOLECULE
M0036
17 18
SMALL
USER_CHARGES


@<TRIPOS>ATOM
    1   C1        -0.432006068    -0.776438161    -1.122266801     C.3   1  noname   -0.103897
    2   C2        -0.433221803     0.776468484    -1.121385195     C.3   1  noname   -0.093294
    3   C3         0.352832258     1.437348274     0.020251024     C.3   1  noname   -0.072363
    4   C4         0.157209712     0.724500053     1.338367097     C.3   1  noname    0.009477
    5   C5         0.156692541    -0.724162659     1.338508165     C.3   1  noname    0.010415
    6   C6         0.352172545    -1.437590316     0.020691466     C.3   1  noname   -0.073348
    7   O7        -1.041569099     0.000578444     1.502907450     O.3   1  noname   -0.341058
    8   H8        -1.458303973    -1.117643569    -1.060978014       H   1  noname    0.073907
    9   H9        -0.042341011    -1.148708084    -2.064546129       H   1  noname    0.043425
   10   H10       -1.459779214     1.116142219    -1.056774852       H   1  noname    0.072475
   11   H11       -0.046668049     1.150329806    -2.064308170       H   1  noname    0.040822
   12   H12        0.054377197     2.478247053     0.105564965       H   1  noname    0.060604
   13   H13        1.420044149     1.440768319    -0.195303920       H   1  noname    0.053318
   14   H14        0.474470711     1.252588353     2.223387623       H   1  noname    0.101963
   15   H15        0.473979845    -1.252018701     2.223599104       H   1  noname    0.101752
   16   H16        1.419557568    -1.442280192    -0.193952234       H   1  noname    0.053977
   17   H17        0.052552692    -2.478129323     0.106238422       H   1  noname    0.061825


@<TRIPOS>BOND
    1      1      2    1
    2      2      3    1
    3      3      4    1
    4      4      5    1
    5      5      6    1
    6      5      7    1
    7      6      1    1
    8      7      4    1
    9      1      8    1
   10      1      9    1
   11      2     10    1
   12      2     11    1
   13      3     12    1
   14      3     13    1
   15      4     14    1
   16      5     15    1
   17      6     16    1
   18      6     17    1
#
#	File Created by: Spartan'20 Export
#

@<TRIPOS>MOLECULE
M0037
16 16
SMALL
USER_CHARGES


@<TRIPOS>ATOM
    1   C1        -0.695911521    -0.317415444    -1.087513812     C.3   1  noname   -0.153506
    2   C2         0.695911362     0.317414433    -1.087507083     C.3   1  noname   -0.153520
    3   C3         1.492533411    -0.117382479     0.146514641     C.3   1  noname   -0.033432
    4   C4         0.658152008    -0.056947678     1.402791844     C.2   1  noname   -0.206473
    5   C5        -0.658146409     0.056955384     1.402785324     C.2   1  noname   -0.206445
    6   C6        -1.492535907     0.117365595     0.146513493     C.3   1  noname   -0.033452
    7   H7        -1.235806629    -0.053040647    -1.992575524       H   1  noname    0.053591
    8   H8        -0.594453769    -1.400909374    -1.085567152       H   1  noname    0.095258
    9   H9         1.235808595     0.053065498    -1.992572652       H   1  noname    0.053594
   10   H10        0.594451091     1.400906022    -1.085528901       H   1  noname    0.095261
   11   H11        2.371559193     0.511816204     0.263034548       H   1  noname    0.050699
   12   H12        1.866660530    -1.131667217     0.011681491       H   1  noname    0.067669
   13   H13        1.185102662    -0.111698442     2.341608810       H   1  noname    0.126193
   14   H14       -1.185098373     0.111750608     2.341597664       H   1  noname    0.126186
   15   H15       -1.866679032     1.131640566     0.011692851       H   1  noname    0.067674
   16   H16       -2.371547213    -0.511853029     0.263044456       H   1  noname    0.050702


@<TRIPOS>BOND
    1      1      2    1
    2      2      3    1
    3      3      4    1
    4      4      5    2
    5      5      6    1
    6      6      1    1
    7      1      7    1
    8      1      8    1
    9      2      9    1
   10      2     10    1
   11      3     11    1
   12      3     12    1
   13      4     13    1
   14      5     14    1
   15      6     15    1
   16      6     16    1
#
#	File Created by: Spartan'20 Export
#

@<TRIPOS>MOLECULE
M0038
20 20
SMALL
USER_CHARGES


@<TRIPOS>ATOM
    1   C1        -2.207351591    -0.267441715     0.086656895     C.3   1  noname   -0.070723
    2   C2        -1.702751451     0.902550596    -0.791175157     C.3   1  noname   -0.287785
    3   C3        -0.183159651     0.702388490    -0.865268002     C.3   1  noname    0.037259
    4   N4         0.122571940    -0.066756647     0.333407669     N.3   1  noname   -0.290360
    5   C5        -0.938743696    -1.056396743     0.425004429     C.3   1  noname   -0.145699
    6   C6         1.444661457    -0.640086365     0.421582730     C.3   1  noname   -0.131491
    7   C7         2.543409784     0.363999539     0.748139599     C.3   1  noname   -0.196893
    8   Cl8        3.198457495     1.237585302    -0.686157959      Cl   1  noname   -0.188291
    9   H9        -2.669523782     0.107709769     0.991970920       H   1  noname    0.074102
   10   H10       -2.939422216    -0.885065179    -0.420505550       H   1  noname    0.067046
   11   H11       -2.150028551     0.904472053    -1.778169034       H   1  noname    0.102433
   12   H12       -1.936903046     1.853701789    -0.328628868       H   1  noname    0.109131
   13   H13        0.359797893     1.636042050    -0.881673662       H   1  noname    0.091891
   14   H14        0.088388015     0.148084194    -1.768208713       H   1  noname    0.067774
   15   H15       -0.964171095    -1.498762308     1.414775032       H   1  noname    0.101313
   16   H16       -0.791109523    -1.867505095    -0.295550056       H   1  noname    0.092464
   17   H17        1.433388629    -1.341321505     1.251103772       H   1  noname    0.128613
   18   H18        1.717337815    -1.208242637    -0.470845228       H   1  noname    0.118200
   19   H19        2.181416181     1.114312432     1.432498085       H   1  noname    0.168834
   20   H20        3.393735393    -0.139268018     1.181043098       H   1  noname    0.152181


@<TRIPOS>BOND
    1      1      2    1
    2      2      3    1
    3      3      4    1
    4      4      5    1
    5      4      6    1
    6      6      7    1
    7      7      8    1
    8      5      1    1
    9      1      9    1
   10      1     10    1
   11      2     11    1
   12      2     12    1
   13      3     13    1
   14      3     14    1
   15      5     15    1
   16      5     16    1
   17      6     17    1
   18      6     18    1
   19      7     19    1
   20      7     20    1
#
#	File Created by: Spartan'20 Export
#

@<TRIPOS>MOLECULE
M0039
14 14
SMALL
USER_CHARGES


@<TRIPOS>ATOM
    1   C1         0.893004868    -0.774116289    -0.066653463     C.3   1  noname   -0.142247
    2   C2         0.892760468     0.774195608    -0.068093408     C.3   1  noname   -0.140832
    3   C3        -0.582311116     1.151094333     0.194226664     C.3   1  noname    0.126162
    4   N4        -1.386995052     0.000264983    -0.195879025     N.3   1  noname   -0.831814
    5   C5        -0.582640965    -1.151186443     0.193168780     C.3   1  noname    0.126754
    6   H6         1.555180520    -1.188558219     0.685622026       H   1  noname    0.049124
    7   H7         1.222692975    -1.158285208    -1.026695312       H   1  noname    0.061445
    8   H8         1.556689697     1.190495448     0.681574737       H   1  noname    0.048830
    9   H9         1.219755264     1.156470989    -1.029775038       H   1  noname    0.061208
   10   H10       -0.901295177     2.039250411    -0.338050740       H   1  noname    0.042783
   11   H11       -0.741060838     1.332640358     1.252855642       H   1  noname    0.076200
   12   H12       -1.502036207     0.000736997    -1.192703433       H   1  noname    0.403686
   13   H13       -0.742716867    -1.334513027     1.251283364       H   1  noname    0.075958
   14   H14       -0.901027570    -2.038489942    -0.340880794       H   1  noname    0.042744


@<TRIPOS>BOND
    1      1      2    1
    2      2      3    1
    3      3      4    1
    4      4      5    1
    5      5      1    1
    6      1      6    1
    7      1      7    1
    8      2      8    1
    9      2      9    1
   10      3     10    1
   11      3     11    1
   12      4     12    1
   13      5     13    1
   14      5     14    1
#
#	File Created by: Spartan'20 Export
#

@<TRIPOS>MOLECULE
M0040
17 17
SMALL
USER_CHARGES


@<TRIPOS>ATOM
    1   C1         0.178657194     0.000000073    -1.374730984     C.3   1  noname   -0.012045
    2   C2        -0.278800395    -1.259779179    -0.633582191     C.3   1  noname   -0.287245
    3   C3         0.151633638    -1.210259913     0.830402019     C.3   1  noname    0.109359
    4   N4        -0.361125180    -0.000000252     1.450352246     N.3   1  noname   -0.711106
    5   C5         0.151632086     1.210260332     0.830401171     C.3   1  noname    0.109362
    6   C6        -0.278797094     1.259781812    -0.633584865     C.3   1  noname   -0.287248
    7   H7        -0.200335079    -0.000002678    -2.392622060       H   1  noname    0.044472
    8   H8         1.265138884    -0.000000263    -1.445680795       H   1  noname    0.065099
    9   H9        -1.362113086    -1.334570178    -0.674739166       H   1  noname    0.133711
   10   H10        0.127428354    -2.149178750    -1.107830610       H   1  noname    0.077229
   11   H11        1.243792219    -1.272091595     0.885423358       H   1  noname    0.045129
   12   H12       -0.245897589    -2.065576929     1.366364484       H   1  noname    0.058595
   13   H13       -0.154424089    -0.000000461     2.430612829       H   1  noname    0.340024
   14   H14        1.243788364     1.272094806     0.885417723       H   1  noname    0.045128
   15   H15       -0.245898540     2.065573563     1.366368134       H   1  noname    0.058595
   16   H16        0.127428579     2.149179961    -1.107836412       H   1  noname    0.077230
   17   H17       -1.362108265     1.334569648    -0.674734882       H   1  noname    0.133711


@<TRIPOS>BOND
    1      1      2    1
    2      2      3    1
    3      3      4    1
    4      4      5    1
    5      5      6    1
    6      6      1    1
    7      1      7    1
    8      1      8    1
    9      2      9    1
   10      2     10    1
   11      3     11    1
   12      3     12    1
   13      4     13    1
   14      5     14    1
   15      5     15    1
   16      6     16    1
   17      6     17    1
#
#	File Created by: Spartan'20 Export
#

@<TRIPOS>MOLECULE
M0041
15 15
SMALL
USER_CHARGES


@<TRIPOS>ATOM
    1   C1         0.340858407    -1.153597027    -0.256391138     C.3   1  noname    0.123216
    2   C2        -1.018283945    -0.524115455    -0.635854462     C.3   1  noname   -0.321809
    3   C3        -1.244644687     0.773452352     0.123056124     C.3   1  noname    0.196020
    4   O4        -0.167418892     1.669331398    -0.094579352     O.3   1  noname   -0.502610
    5   C5         1.077409101     1.242421536     0.127142340     C.2   1  noname    0.893094
    6   O6         1.997317327     1.969468214    -0.033603102     O.2   1  noname   -0.607341
    7   C7         1.192726105    -0.191859832     0.592582645     C.3   1  noname   -0.420526
    8   H8         0.887158807    -1.414192155    -1.155271389       H   1  noname    0.032034
    9   H9         0.199660382    -2.075102391     0.296328824       H   1  noname    0.026818
   10   H10       -1.042456718    -0.299316287    -1.696673835       H   1  noname    0.121613
   11   H11       -1.838524768    -1.205792563    -0.436282232       H   1  noname    0.086561
   12   H12       -2.123840117     1.292958465    -0.226569013       H   1  noname    0.077893
   13   H13       -1.361689855     0.598173144     1.187553524       H   1  noname    0.045735
   14   H14        2.239085063    -0.460229402     0.580365743       H   1  noname    0.120460
   15   H15        0.862643792    -0.221599998     1.628195325       H   1  noname    0.128841


@<TRIPOS>BOND
    1      1      2    1
    2      2      3    1
    3      3      4    1
    4      4      5    1
    5      5      6    2
    6      5      7    1
    7      7      1    1
    8      1      8    1
    9      1      9    1
   10      2     10    1
   11      2     11    1
   12      3     12    1
   13      3     13    1
   14      7     14    1
   15      7     15    1
#
#	File Created by: Spartan'20 Export
#

@<TRIPOS>MOLECULE
M0042
13 13
SMALL
USER_CHARGES


@<TRIPOS>ATOM
    1   C1         0.223264474    -0.731252838    -0.757118050     C.3   1  noname   -0.201745
    2   C2        -0.223243531     0.731232122    -0.757115388     C.3   1  noname   -0.201714
    3   C3         0.130753758     1.155851425     0.667578924     C.3   1  noname    0.126918
    4   O4         0.000121485    -0.000015866     1.463519927     O.3   1  noname   -0.460852
    5   C5        -0.130749782    -1.155849887     0.667573844     C.3   1  noname    0.126907
    6   H6        -0.265582773    -1.337690000    -1.510656175       H   1  noname    0.077070
    7   H7         1.295499018    -0.797175326    -0.915450230       H   1  noname    0.106812
    8   H8        -1.295476334     0.797149055    -0.915452729       H   1  noname    0.106797
    9   H9         0.265593711     1.337678287    -1.510652236       H   1  noname    0.077065
   10   H10       -0.521487362     1.926472733     1.060498085       H   1  noname    0.057717
   11   H11        1.154393715     1.517898641     0.723394183       H   1  noname    0.063648
   12   H12       -1.154450405    -1.517712663     0.723414710       H   1  noname    0.063649
   13   H13        0.521364026    -1.926585681     1.060465135       H   1  noname    0.057731


@<TRIPOS>BOND
    1      1      2    1
    2      2      3    1
    3      3      4    1
    4      4      5    1
    5      5      1    1
    6      1      6    1
    7      1      7    1
    8      2      8    1
    9      2      9    1
   10      3     10    1
   11      3     11    1
   12      5     12    1
   13      5     13    1
#
#	File Created by: Spartan'20 Export
#

@<TRIPOS>MOLECULE
M0043
16 16
SMALL
USER_CHARGES


@<TRIPOS>ATOM
    1   C1         0.079767821    -1.100181361    -0.629311733     C.3   1  noname   -0.065381
    2   C2         1.150495746    -0.524109282     0.296880758     C.3   1  noname   -0.160889
    3   C3         1.192931665     1.004714027     0.140060001     C.3   1  noname    0.036960
    4   O4        -0.038219266     1.529565262    -0.286545294     O.3   1  noname   -0.428907
    5   C5        -1.147033597     0.899196268     0.290023999     C.3   1  noname    0.123203
    6   C6        -1.298729344    -0.532608841    -0.248358260     C.3   1  noname   -0.150019
    7   H7         0.314540923    -0.827696865    -1.653297188       H   1  noname    0.083709
    8   H8         0.072197594    -2.184150668    -0.585149275       H   1  noname    0.037904
    9   H9         2.128939795    -0.940561680     0.078529025       H   1  noname    0.058842
   10   H10        0.921250683    -0.795304296     1.324485889       H   1  noname    0.082238
   11   H11        1.491834120     1.479384121     1.073208840       H   1  noname    0.057551
   12   H12        1.910571251     1.287434132    -0.619802765       H   1  noname    0.094818
   13   H13       -1.046737838     0.893504956     1.374662499       H   1  noname    0.050968
   14   H14       -2.009446680     1.506175511     0.049554998       H   1  noname    0.063009
   15   H15       -1.952505459    -0.541850152    -1.114418702       H   1  noname    0.065700
   16   H16       -1.769857412    -1.153511132     0.509477207       H   1  noname    0.050294


@<TRIPOS>BOND
    1      1      2    1
    2      2      3    1
    3      3      4    1
    4      4      5    1
    5      5      6    1
    6      6      1    1
    7      1      7    1
    8      1      8    1
    9      2      9    1
   10      2     10    1
   11      3     11    1
   12      3     12    1
   13      5     13    1
   14      5     14    1
   15      6     15    1
   16      6     16    1
#
#	File Created by: Spartan'20 Export
#

@<TRIPOS>MOLECULE
M0044
15 15
SMALL
USER_CHARGES


@<TRIPOS>ATOM
    1   C1        -0.757804159    -0.127348864    -1.063912908     C.3   1  noname   -0.178425
    2   C2         0.757937676     0.127589773    -1.063755700     C.3   1  noname   -0.178440
    3   C3         1.282838087    -0.389235541     0.279567815     C.3   1  noname   -0.346276
    4   S4         0.000087408     0.000210487     1.478339731       S   1  noname    1.303680
    5   O5         0.357921778     1.192059738     2.198884054     O.2   1  noname   -0.661030
    6   O6        -0.357509499    -1.190967365     2.200088180     O.2   1  noname   -0.661047
    7   C7        -1.283027133     0.388752362     0.279597630     C.3   1  noname   -0.346150
    8   H8        -1.252994637     0.368647302    -1.889451172       H   1  noname    0.111983
    9   H9        -0.953027767    -1.191137147    -1.153494379       H   1  noname    0.116007
   10   H10        1.253212249    -0.368041095    -1.889463342       H   1  noname    0.112000
   11   H11        0.953273287     1.191405401    -1.152769676       H   1  noname    0.116024
   12   H12        1.396419916    -1.465002404     0.280658903       H   1  noname    0.153019
   13   H13        2.201993878     0.075314999     0.607400732       H   1  noname    0.152859
   14   H14       -2.201770216    -0.076664307     0.607348556       H   1  noname    0.152788
   15   H15       -1.397550867     1.464416664     0.280961575       H   1  noname    0.153008


@<TRIPOS>BOND
    1      1      2    1
    2      2      3    1
    3      3      4    1
    4      4      5    2
    5      4      6    2
    6      4      7    1
    7      7      1    1
    8      1      8    1
    9      1      9    1
   10      2     10    1
   11      2     11    1
   12      3     12    1
   13      3     13    1
   14      7     14    1
   15      7     15    1
#
#	File Created by: Spartan'20 Export
#

@<TRIPOS>MOLECULE
M0045
14 14
SMALL
USER_CHARGES


@<TRIPOS>ATOM
    1   C1         0.672858729    -0.912511342    -0.208782107     C.3   1  noname   -0.116647
    2   C2        -0.734590785    -0.849659568     0.395354459     C.3   1  noname   -0.196016
    3   C3        -1.269384196     0.585364547     0.193012541     C.3   1  noname   -0.056463
    4   S4         0.104408799     1.673410574    -0.313545873       S   1  noname    0.271122
    5   O5         0.090299392     1.699939369    -1.802620953     O.2   1  noname   -0.524065
    6   C6         1.321972527     0.421397516     0.149644768     C.3   1  noname   -0.200160
    7   H7         0.620479846    -0.998908422    -1.286960002       H   1  noname    0.119948
    8   H8         1.242052265    -1.753086712     0.171779283       H   1  noname    0.068633
    9   H9        -0.683622141    -1.071310382     1.456784111       H   1  noname    0.098673
   10   H10       -1.400229562    -1.577341646    -0.053234525       H   1  noname    0.083986
   11   H11       -1.727041028     0.986096696     1.088954495       H   1  noname    0.058995
   12   H12       -1.981320842     0.658614488    -0.618120601       H   1  noname    0.129416
   13   H13        2.235961456     0.633585941    -0.388550948       H   1  noname    0.151934
   14   H14        1.508155540     0.504408940     1.216285353       H   1  noname    0.110645


@<TRIPOS>BOND
    1      1      2    1
    2      2      3    1
    3      3      4    1
    4      4      5    2
    5      4      6    1
    6      6      1    1
    7      1      7    1
    8      1      8    1
    9      2      9    1
   10      2     10    1
   11      3     11    1
   12      3     12    1
   13      6     13    1
   14      6     14    1
#
#	File Created by: Spartan'20 Export
#

@<TRIPOS>MOLECULE
M0046
13 13
SMALL
USER_CHARGES


@<TRIPOS>ATOM
    1   C1        -0.715302198     0.269050180    -0.715240038     C.3   1  noname   -0.245786
    2   C2         0.715286469    -0.269019962    -0.715243096     C.3   1  noname   -0.245766
    3   C3         1.334753279     0.139082198     0.623036575     C.3   1  noname   -0.053473
    4   S4        -0.000018403     0.000119302     1.869404337     S.3   1  noname   -0.253756
    5   C5        -1.334748216    -0.139091464     0.623033670     C.3   1  noname   -0.053532
    6   H6        -0.699270343     1.352020871    -0.796183129       H   1  noname    0.130055
    7   H7        -1.297277717    -0.115045341    -1.546855955       H   1  noname    0.103506
    8   H8         1.297270823     0.115069200    -1.546855450       H   1  noname    0.103500
    9   H9         0.699237200    -1.351989229    -0.796201663       H   1  noname    0.130050
   10   H10        1.690376382     1.161143187     0.591943417       H   1  noname    0.097277
   11   H11        2.159758071    -0.499346000     0.908613373       H   1  noname    0.095303
   12   H12       -1.690212046    -1.161207421     0.591969999       H   1  noname    0.097290
   13   H13       -2.159853300     0.499214478     0.908577960       H   1  noname    0.095333


@<TRIPOS>BOND
    1      1      2    1
    2      2      3    1
    3      3      4    1
    4      4      5    1
    5      5      1    1
    6      1      6    1
    7      1      7    1
    8      2      8    1
    9      2      9    1
   10      3     10    1
   11      3     11    1
   12      5     12    1
   13      5     13    1
#
#	File Created by: Spartan'20 Export
#

@<TRIPOS>MOLECULE
M0047
16 16
SMALL
USER_CHARGES


@<TRIPOS>ATOM
    1   C1        -0.209538897    -1.197621653    -0.158499998     C.3   1  noname    0.003169
    2   C2         1.260474776    -0.749275034    -0.020686983     C.3   1  noname   -0.233953
    3   C3         1.419670025     0.750936924     0.259687331     C.3   1  noname   -0.082745
    4   S4         0.174215744     1.391402483     1.415810702     S.3   1  noname   -0.300569
    5   C5        -1.343966383     0.996014859     0.469150512     C.3   1  noname    0.111990
    6   C6        -1.128459676    -0.064181395    -0.620176855     C.3   1  noname   -0.364786
    7   H7        -0.570535136    -1.567749119     0.796553110       H   1  noname    0.057221
    8   H8        -0.270343921    -2.029284547    -0.853532764       H   1  noname    0.050393
    9   H9         1.803418122    -0.976237520    -0.935038076       H   1  noname    0.083364
   10   H10        1.734939078    -1.316107367     0.773081981       H   1  noname    0.091506
   11   H11        2.381845425     0.956975241     0.711450734       H   1  noname    0.134882
   12   H12        1.374701580     1.324777803    -0.657595727       H   1  noname    0.083991
   13   H13       -2.061885845     0.635606087     1.195455858       H   1  noname    0.083235
   14   H14       -1.742434109     1.905358396     0.037867572       H   1  noname    0.029258
   15   H15       -0.721539252     0.399819502    -1.514305745       H   1  noname    0.155548
   16   H16       -2.100561531    -0.460434659    -0.899221653       H   1  noname    0.097494


@<TRIPOS>BOND
    1      1      2    1
    2      2      3    1
    3      3      4    1
    4      4      5    1
    5      5      6    1
    6      6      1    1
    7      1      7    1
    8      1      8    1
    9      2      9    1
   10      2     10    1
   11      3     11    1
   12      3     12    1
   13      5     13    1
   14      5     14    1
   15      6     15    1
   16      6     16    1
#
#	File Created by: Spartan'20 Export
#

@<TRIPOS>MOLECULE
M0048
21 22
SMALL
USER_CHARGES


@<TRIPOS>ATOM
    1   C1         0.436065600    -1.355693348    -0.691144848     C.3   1  noname   -0.376651
    2   C2        -0.686980423    -1.445365091     0.377600822     C.3   1  noname    0.097123
    3   N3        -0.981979915    -0.134149783     0.948218697     N.3   1  noname   -0.612403
    4   C4        -1.477115194     0.759136964    -0.092511671     C.3   1  noname    0.108096
    5   C5        -0.437028863     0.917833661    -1.236716983     C.3   1  noname   -0.436981
    6   C6         0.822777613     0.120831706    -0.854516795     C.3   1  noname    0.359493
    7   C7         1.304041775     0.695164679     0.480981082     C.3   1  noname   -0.137902
    8   C8         0.217267219     0.419821851     1.553795611     C.3   1  noname    0.029264
    9   Cl9        2.913148192     0.021171472     0.968732571      Cl   1  noname   -0.220050
   10   H10        0.098492473    -1.745775877    -1.646910058       H   1  noname    0.105765
   11   H11        1.300856773    -1.940120202    -0.400086446       H   1  noname    0.118288
   12   H12       -0.401953344    -2.108917404     1.185576367       H   1  noname    0.087923
   13   H13       -1.603279350    -1.839239450    -0.047557947       H   1  noname    0.088397
   14   H14       -2.411809907     0.359547470    -0.467195876       H   1  noname    0.088362
   15   H15       -1.703187061     1.716504071     0.363593460       H   1  noname    0.088079
   16   H16       -0.827268120     0.540759560    -2.176809897       H   1  noname    0.133496
   17   H17       -0.190469287     1.963315974    -1.398181062       H   1  noname    0.110633
   18   H18        1.592247638     0.238121007    -1.607686941       H   1  noname   -0.002679
   19   H19        1.491543252     1.752531553     0.377083127       H   1  noname    0.141977
   20   H20        0.583570521    -0.275352701     2.297490974       H   1  noname    0.127934
   21   H21       -0.038939593     1.339873888     2.066245815       H   1  noname    0.101837


@<TRIPOS>BOND
    1      1      2    1
    2      2      3    1
    3      3      4    1
    4      4      5    1
    5      5      6    1
    6      6      7    1
    7      7      8    1
    8      7      9    1
    9      6      1    1
   10      8      3    1
   11      1     10    1
   12      1     11    1
   13      2     12    1
   14      2     13    1
   15      4     14    1
   16      4     15    1
   17      5     16    1
   18      5     17    1
   19      6     18    1
   20      7     19    1
   21      8     20    1
   22      8     21    1
#
#	File Created by: Spartan'20 Export
#

@<TRIPOS>MOLECULE
M0049
21 22
SMALL
USER_CHARGES


@<TRIPOS>ATOM
    1   C1        -1.440073383    -0.000003932    -0.671855920     C.3   1  noname   -0.443714
    2   C2        -1.377563640     0.000003800     0.881045206     C.3   1  noname    0.164760
    3   N3         0.000097873     0.000003028     1.360566270     N.3   1  noname   -0.679836
    4   C4         0.688808718     1.193105084     0.880963164     C.3   1  noname    0.137342
    5   C5         0.720092588     1.246992448    -0.671936180     C.3   1  noname   -0.442989
    6   C6        -0.000086647    -0.000000642    -1.205200451     C.3   1  noname    0.489599
    7   C7         0.720102541    -1.246987775    -0.671934970     C.3   1  noname   -0.442988
    8   C8         0.688796685    -1.193106701     0.880964123     C.3   1  noname    0.137331
    9   H9        -1.973912560     0.871969396    -1.039723105       H   1  noname    0.110202
   10   H10       -1.973904527    -0.871985732    -1.039714934       H   1  noname    0.110202
   11   H11       -1.876993799    -0.870932838     1.291220656       H   1  noname    0.071688
   12   H12       -1.877002359     0.870939832     1.291213235       H   1  noname    0.071688
   13   H13        1.692758979     1.190566602     1.291246502       H   1  noname    0.079275
   14   H14        0.183994178     2.060985161     1.290993373       H   1  noname    0.080485
   15   H15        1.742160315     1.273109252    -1.039833208       H   1  noname    0.112021
   16   H16        0.232015820     2.145327889    -1.039940004       H   1  noname    0.111314
   17   H17       -0.000202379    -0.000001566    -2.290546098       H   1  noname   -0.049483
   18   H18        0.232040670    -2.145327050    -1.039948410       H   1  noname    0.111313
   19   H19        1.742174566    -1.273087582    -1.039820961       H   1  noname    0.112023
   20   H20        1.692741190    -1.190592109     1.291260678       H   1  noname    0.079277
   21   H21        0.183955171    -2.060976565     1.290981037       H   1  noname    0.080488


@<TRIPOS>BOND
    1      1      2    1
    2      2      3    1
    3      3      4    1
    4      4      5    1
    5      5      6    1
    6      6      7    1
    7      7      8    1
    8      6      1    1
    9      8      3    1
   10      1      9    1
   11      1     10    1
   12      2     11    1
   13      2     12    1
   14      4     13    1
   15      4     14    1
   16      5     15    1
   17      5     16    1
   18      6     17    1
   19      7     18    1
   20      7     19    1
   21      8     20    1
   22      8     21    1
#
#	File Created by: Spartan'20 Export
#

@<TRIPOS>MOLECULE
M0050
20 21
SMALL
USER_CHARGES


@<TRIPOS>ATOM
    1   C1        -1.373045407     0.000075292    -0.777775326     C.3   1  noname   -0.092429
    2   C2        -1.373045535    -0.000075479     0.777774881     C.3   1  noname   -0.092428
    3   N3        -0.000001118    -0.000000306     1.272713872     N.3   1  noname   -0.462635
    4   C4         0.686595071    -1.189049879     0.777773395     C.3   1  noname   -0.092905
    5   C5         0.686464736    -1.189124827    -0.777774026     C.3   1  noname   -0.092912
    6   N6        -0.000000803     0.000000510    -1.272714232     N.3   1  noname   -0.462634
    7   C7         0.686595409     1.189049985    -0.777773518     C.3   1  noname   -0.092905
    8   C8         0.686464726     1.189125005     0.777774016     C.3   1  noname   -0.092909
    9   H9        -1.880529520     0.872549335    -1.175297132       H   1  noname    0.123358
   10   H10       -1.880699551    -0.872221044    -1.175472757       H   1  noname    0.123341
   11   H11       -1.880528109    -0.872550186     1.175296761       H   1  noname    0.123358
   12   H12       -1.880700893     0.872219977     1.175472608       H   1  noname    0.123341
   13   H13        1.695915072    -1.192324843     1.175311340       H   1  noname    0.123182
   14   H14        0.184977316    -2.064830850     1.175479502       H   1  noname    0.123907
   15   H15        1.695715832    -1.192638432    -1.175487738       H   1  noname    0.123165
   16   H16        0.184605475    -2.064845937    -1.175303968       H   1  noname    0.123926
   17   H17        1.695915914     1.192324531    -1.175310712       H   1  noname    0.123182
   18   H18        0.184978905     2.064831757    -1.175479886       H   1  noname    0.123907
   19   H19        0.184606575     2.064846666     1.175304624       H   1  noname    0.123925
   20   H20        1.695715906     1.192638725     1.175488294       H   1  noname    0.123164


@<TRIPOS>BOND
    1      1      2    1
    2      2      3    1
    3      3      4    1
    4      4      5    1
    5      5      6    1
    6      6      7    1
    7      7      8    1
    8      6      1    1
    9      8      3    1
   10      1      9    1
   11      1     10    1
   12      2     11    1
   13      2     12    1
   14      4     13    1
   15      4     14    1
   16      5     15    1
   17      5     16    1
   18      7     17    1
   19      7     18    1
   20      8     19    1
   21      8     20    1
#
#	File Created by: Spartan'20 Export
#

@<TRIPOS>MOLECULE
M0051
11 11
SMALL
USER_CHARGES


@<TRIPOS>ATOM
    1   C1         0.979457495     0.000000133     0.043662599     C.3   1  noname   -0.502499
    2   C2        -0.149608530     1.046917745     0.004539857     C.3   1  noname    0.262314
    3   N3        -1.092538940    -0.000001590     0.415732999     N.3   1  noname   -0.775062
    4   C4        -0.149607969    -1.046917787     0.004533053     C.3   1  noname    0.262315
    5   H5         1.687843821     0.000003400    -0.774621990       H   1  noname    0.136193
    6   H6         1.515599706    -0.000003769     0.984076491       H   1  noname    0.176078
    7   H7        -0.320591632     1.425439416    -1.001693315       H   1  noname    0.018799
    8   H8        -0.084442508     1.888160526     0.685116611       H   1  noname    0.026356
    9   H9        -1.981079920    -0.000000074    -0.044750899       H   1  noname    0.350352
   10   H10       -0.320590291    -1.425435586    -1.001700725       H   1  noname    0.018798
   11   H11       -0.084441233    -1.888162414     0.685105320       H   1  noname    0.026356


@<TRIPOS>BOND
    1      1      2    1
    2      2      3    1
    3      3      4    1
    4      4      1    1
    5      1      5    1
    6      1      6    1
    7      2      7    1
    8      2      8    1
    9      3      9    1
   10      4     10    1
   11      4     11    1
#
#	File Created by: Spartan'20 Export
#

@<TRIPOS>MOLECULE
M0052
16 16
SMALL
USER_CHARGES


@<TRIPOS>ATOM
    1   C1        -1.324731325     0.339218197     0.282973244     C.3   1  noname    0.125927
    2   C2        -0.939331180    -0.943667443    -0.445192894     C.3   1  noname    0.052521
    3   N3         0.403718461    -1.405422237    -0.101026446     N.3   1  noname   -0.780267
    4   C4         1.324872577    -0.339242023     0.282809960     C.3   1  noname    0.127592
    5   C5         0.939512448     0.943735171    -0.445117042     C.3   1  noname    0.043141
    6   N6        -0.403591385     1.405766284    -0.099997033     N.3   1  noname   -0.779875
    7   H7        -1.311838540     0.147250472     1.357542055       H   1  noname    0.043934
    8   H8        -2.338137840     0.629195380     0.022959372       H   1  noname    0.027605
    9   H9        -1.648300964    -1.730965765    -0.218567082       H   1  noname    0.049358
   10   H10       -0.997642993    -0.768476905    -1.515463909       H   1  noname    0.109232
   11   H11        0.361241619    -2.100148236     0.615920303       H   1  noname    0.371999
   12   H12        2.338468256    -0.629144832     0.023532365       H   1  noname    0.027823
   13   H13        1.311133817    -0.147794635     1.357274127       H   1  noname    0.044256
   14   H14        1.648378709     1.730537829    -0.218114613       H   1  noname    0.051828
   15   H15        0.997879638     0.768828354    -1.515215958       H   1  noname    0.111612
   16   H16       -0.361631297     2.100330389     0.615683550       H   1  noname    0.373317


@<TRIPOS>BOND
    1      1      2    1
    2      2      3    1
    3      3      4    1
    4      4      5    1
    5      5      6    1
    6      6      1    1
    7      1      7    1
    8      1      8    1
    9      2      9    1
   10      2     10    1
   11      3     11    1
   12      4     12    1
   13      4     13    1
   14      5     14    1
   15      5     15    1
   16      6     16    1
#
#	File Created by: Spartan'20 Export
#

@<TRIPOS>MOLECULE
M0053
10 10
SMALL
USER_CHARGES


@<TRIPOS>ATOM
    1   C1        -0.012692445     0.000001260     0.800499022     C.3   1  noname   -0.436341
    2   C2         0.005299421     1.027154484    -0.342070414     C.3   1  noname    0.264986
    3   O3         0.025869061     0.000000531    -1.320322074     O.3   1  noname   -0.508310
    4   C4         0.005299437    -1.027151780    -0.342069336     C.3   1  noname    0.264991
    5   H5         0.858835206    -0.000003538     1.441734408       H   1  noname    0.134285
    6   H6        -0.905569984    -0.000002737     1.411934939       H   1  noname    0.133062
    7   H7        -0.877368954     1.650887082    -0.429491393       H   1  noname    0.036888
    8   H8         0.888848150     1.653979038    -0.395364755       H   1  noname    0.036777
    9   H9        -0.877367702    -1.650885609    -0.429488066       H   1  noname    0.036886
   10   H10        0.888847810    -1.653978731    -0.395362331       H   1  noname    0.036776


@<TRIPOS>BOND
    1      1      2    1
    2      2      3    1
    3      3      4    1
    4      4      1    1
    5      1      5    1
    6      1      6    1
    7      2      7    1
    8      2      8    1
    9      4      9    1
   10      4     10    1
#
#	File Created by: Spartan'20 Export
#

@<TRIPOS>MOLECULE
M0054
9 9
SMALL
USER_CHARGES


@<TRIPOS>ATOM
    1   C1         0.771543356    -0.000009513    -0.086376661     C.3   1  noname   -0.628936
    2   C2        -0.591600676     0.000000550    -0.788003141     C.3   1  noname    0.257222
    3   O3        -1.246409228    -0.000050739     0.491967748     O.3   1  noname   -0.498706
    4   C4        -0.085632217     0.000008600     1.168159982     C.2   1  noname    0.921030
    5   O5         0.081106557     0.000043154     2.328133532     O.2   1  noname   -0.581533
    6   H6         1.379166684     0.886118174    -0.208857489       H   1  noname    0.201215
    7   H7         1.379155913    -0.886146996    -0.208839281       H   1  noname    0.201224
    8   H8        -0.843651781    -0.887738580    -1.348124219       H   1  noname    0.064244
    9   H9        -0.843678607     0.887775350    -1.348060470       H   1  noname    0.064241


@<TRIPOS>BOND
    1      1      2    1
    2      2      3    1
    3      3      4    1
    4      4      5    2
    5      4      1    1
    6      1      6    1
    7      1      7    1
    8      2      8    1
    9      2      9    1
#
#	File Created by: Spartan'20 Export
#

@<TRIPOS>MOLECULE
M0055
11 11
SMALL
USER_CHARGES


@<TRIPOS>ATOM
    1   C1        -0.659317430     0.615747842     0.368831767     C.3   1  noname    0.103965
    2   C2        -0.835750204    -0.610493915    -0.555511882     C.3   1  noname   -0.007060
    3   O3         0.473653453    -1.053823408    -0.903621643     O.3   1  noname   -0.353250
    4   C4         1.355567220    -0.358495279    -0.150917715     C.2   1  noname    0.127997
    5   C5         0.832908720     0.583705509     0.602858902     C.2   1  noname   -0.425564
    6   H6        -0.976843838     1.538292115    -0.109725276       H   1  noname    0.033854
    7   H7        -1.235859452     0.513958614     1.282702348       H   1  noname    0.028694
    8   H8        -1.365995553    -0.386323354    -1.470296843       H   1  noname    0.088679
    9   H9        -1.340225509    -1.426017354    -0.052666365       H   1  noname    0.086777
   10   H10        2.378402282    -0.656537362    -0.265925842       H   1  noname    0.140219
   11   H11        1.373460311     1.239986593     1.254272548       H   1  noname    0.175690


@<TRIPOS>BOND
    1      1      2    1
    2      2      3    1
    3      3      4    1
    4      4      5    2
    5      5      1    1
    6      1      6    1
    7      1      7    1
    8      2      8    1
    9      2      9    1
   10      4     10    1
   11      5     11    1
#
#	File Created by: Spartan'20 Export
#

@<TRIPOS>MOLECULE
M0056
15 15
SMALL
USER_CHARGES


@<TRIPOS>ATOM
    1   C1         1.010159677    -0.803908018     0.379562308     C.3   1  noname    0.131250
    2   C2         1.288443859     0.352860682    -0.565119327     C.3   1  noname    0.014453
    3   O3         0.456436043     1.455617617    -0.303232680     O.3   1  noname   -0.421495
    4   C4        -0.829673110     1.152471458     0.179533058     C.3   1  noname    0.030991
    5   C5        -1.277752392    -0.234145723    -0.260124819     C.3   1  noname    0.087285
    6   N6        -0.355533127    -1.278188316     0.177762305     N.3   1  noname   -0.794230
    7   H7         1.186348192    -0.462145203     1.399597165       H   1  noname    0.058044
    8   H8         1.710162137    -1.609977268     0.182755870       H   1  noname    0.038868
    9   H9         2.308654036     0.696694115    -0.453325621       H   1  noname    0.073974
   10   H10        1.157766636     0.021965869    -1.592665839       H   1  noname    0.112979
   11   H11       -1.501201979     1.913431844    -0.200439236       H   1  noname    0.068437
   12   H12       -0.836076457     1.217190803     1.266141977       H   1  noname    0.082416
   13   H13       -1.355365411    -0.251116891    -1.343281342       H   1  noname    0.087455
   14   H14       -2.268226547    -0.443280005     0.128654439       H   1  noname    0.053347
   15   H15       -0.694141556    -1.727470963     1.004181739       H   1  noname    0.376224


@<TRIPOS>BOND
    1      1      2    1
    2      2      3    1
    3      3      4    1
    4      4      5    1
    5      5      6    1
    6      6      1    1
    7      1      7    1
    8      1      8    1
    9      2      9    1
   10      2     10    1
   11      4     11    1
   12      4     12    1
   13      5     13    1
   14      5     14    1
   15      6     15    1
#
#	File Created by: Spartan'20 Export
#

@<TRIPOS>MOLECULE
M0057
14 14
SMALL
USER_CHARGES


@<TRIPOS>ATOM
    1   C1         0.344292626     1.134988528    -0.675806107     C.3   1  noname    0.026599
    2   C2        -0.344280982     1.134957135     0.675794421     C.3   1  noname    0.026584
    3   O3         0.000099999     0.000025256     1.429541285     O.3   1  noname   -0.421452
    4   C4         0.344282597    -1.134986690     0.675811012     C.3   1  noname    0.026605
    5   C5        -0.344273150    -1.134954046    -0.675799344     C.3   1  noname    0.026593
    6   O6         0.000077181    -0.000009294    -1.429541415     O.3   1  noname   -0.421452
    7   H7         0.049820089     2.006159457    -1.247979174       H   1  noname    0.084931
    8   H8         1.421958271     1.173439025    -0.537136520       H   1  noname    0.099200
    9   H9        -1.421951929     1.173266587     0.537129871       H   1  noname    0.099197
   10   H10       -0.049921819     2.006171279     1.247958023       H   1  noname    0.084943
   11   H11        1.421947697    -1.173461682     0.537134696       H   1  noname    0.099194
   12   H12        0.049799155    -2.006148873     1.247993805       H   1  noname    0.084929
   13   H13       -0.049906386    -2.006160127    -1.247973381       H   1  noname    0.084940
   14   H14       -1.421943350    -1.173286555    -0.537127170       H   1  noname    0.099190


@<TRIPOS>BOND
    1      1      2    1
    2      2      3    1
    3      3      4    1
    4      4      5    1
    5      5      6    1
    6      6      1    1
    7      1      7    1
    8      1      8    1
    9      2      9    1
   10      2     10    1
   11      4     11    1
   12      4     12    1
   13      5     13    1
   14      5     14    1
#
#	File Created by: Spartan'20 Export
#

@<TRIPOS>MOLECULE
M0058
11 11
SMALL
USER_CHARGES


@<TRIPOS>ATOM
    1   C1         0.735514238    -0.189858577    -0.774030561     C.3   1  noname    0.060404
    2   C2        -0.735510477     0.189860878    -0.774032760     C.3   1  noname    0.060419
    3   O3        -1.118120843    -0.128999008     0.538327972     O.3   1  noname   -0.456223
    4   C4        -0.000002894     0.000018324     1.362253531     C.3   1  noname    0.345711
    5   O5         1.118104760     0.129098960     0.538312635     O.3   1  noname   -0.456223
    6   H6         1.342763500     0.380065762    -1.462732995       H   1  noname    0.082318
    7   H7         0.871914403    -1.250325703    -0.966919195       H   1  noname    0.082778
    8   H8        -1.342761417    -0.380113244    -1.462701568       H   1  noname    0.082307
    9   H9        -0.871909256     1.250322380    -0.966999723       H   1  noname    0.082775
   10   H10       -0.072446598     0.884427661     1.984336305       H   1  noname    0.057875
   11   H11        0.072454583    -0.884497433     1.984186359       H   1  noname    0.057860


@<TRIPOS>BOND
    1      1      2    1
    2      2      3    1
    3      3      4    1
    4      4      5    1
    5      5      1    1
    6      1      6    1
    7      1      7    1
    8      2      8    1
    9      2      9    1
   10      4     10    1
   11      4     11    1
#
#	File Created by: Spartan'20 Export
#

@<TRIPOS>MOLECULE
M0059
14 14
SMALL
USER_CHARGES


@<TRIPOS>ATOM
    1   C1        -0.000002162     0.000009640    -1.270985131     C.3   1  noname   -0.120999
    2   C2        -1.202432779    -0.289501766    -0.363685000     C.3   1  noname    0.083560
    3   O3        -1.065132493     0.438257518     0.831890014     O.3   1  noname   -0.417477
    4   C4        -0.000006331     0.000004868     1.608487237     C.3   1  noname    0.146631
    5   O5         1.065119411    -0.438263434     0.831890854     O.3   1  noname   -0.417480
    6   C6         1.202440324     0.289487845    -0.363687870     C.3   1  noname    0.083563
    7   H7         0.193583154    -0.854001205    -1.912573398       H   1  noname    0.057900
    8   H8        -0.193597000     0.854050027    -1.912532186       H   1  noname    0.057901
    9   H9        -2.135549798     0.022971863    -0.810404682       H   1  noname    0.074842
   10   H10       -1.271546599    -1.351664080    -0.145394526       H   1  noname    0.083988
   11   H11       -0.290299876    -0.839482048     2.231410145       H   1  noname    0.104371
   12   H12        0.290287385     0.839502894     2.231398808       H   1  noname    0.104371
   13   H13        1.271590618     1.351649398    -0.145408511       H   1  noname    0.083987
   14   H14        2.135546146    -0.023021523    -0.810405756       H   1  noname    0.074842


@<TRIPOS>BOND
    1      1      2    1
    2      2      3    1
    3      3      4    1
    4      4      5    1
    5      5      6    1
    6      6      1    1
    7      1      7    1
    8      1      8    1
    9      2      9    1
   10      2     10    1
   11      4     11    1
   12      4     12    1
   13      6     13    1
   14      6     14    1
#
#	File Created by: Spartan'20 Export
#

@<TRIPOS>MOLECULE
M0060
10 10
SMALL
USER_CHARGES


@<TRIPOS>ATOM
    1   C1        -0.402503194     0.839103471     0.079422721     C.3   1  noname    0.035178
    2   C2        -0.769581716    -0.649968124     0.052256269     C.3   1  noname    0.046970
    3   O3         0.382242108    -1.317742477    -0.455802338     O.3   1  noname   -0.340509
    4   S4         1.654289138    -0.339694554    -0.648707695       S   1  noname    0.633927
    5   O5         2.311129884    -0.222251389     0.621593762     O.2   1  noname   -0.448638
    6   O6         0.689720609     0.943857575    -0.824091443     O.3   1  noname   -0.334686
    7   H7        -1.189235260     1.476269144    -0.291382144       H   1  noname    0.101780
    8   H8        -0.091715869     1.167350272     1.060331748       H   1  noname    0.112346
    9   H9        -1.582834418    -0.860038815    -0.627012964       H   1  noname    0.092235
   10   H10       -1.001511282    -1.036885103     1.033392085       H   1  noname    0.101397


@<TRIPOS>BOND
    1      1      2    1
    2      2      3    1
    3      3      4    1
    4      4      5    2
    5      4      6    1
    6      6      1    1
    7      1      7    1
    8      1      8    1
    9      2      9    1
   10      2     10    1
#
#	File Created by: Spartan'20 Export
#

@<TRIPOS>MOLECULE
M0061
7 7
SMALL
USER_CHARGES


@<TRIPOS>ATOM
    1   C1        -0.736069683    -0.000000259    -0.079619078     C.3   1  noname   -0.269682
    2   C2         0.736068258     0.000000429    -0.079621849     C.3   1  noname   -0.269682
    3   S3         0.000000804     0.000000115     1.575409402     S.3   1  noname   -0.151023
    4   H4        -1.245588235     0.905022071    -0.354044654       H   1  noname    0.172597
    5   H5        -1.245588916    -0.905023052    -0.354041230       H   1  noname    0.172597
    6   H6         1.245589984     0.905022960    -0.354039347       H   1  noname    0.172597
    7   H7         1.245587788    -0.905022264    -0.354043245       H   1  noname    0.172597


@<TRIPOS>BOND
    1      1      2    1
    2      2      3    1
    3      3      1    1
    4      1      4    1
    5      1      5    1
    6      2      6    1
    7      2      7    1
#
#	File Created by: Spartan'20 Export
#

@<TRIPOS>MOLECULE
M0062
10 10
SMALL
USER_CHARGES


@<TRIPOS>ATOM
    1   C1         0.692076576     0.317520285    -0.811815330     C.3   1  noname   -0.162904
    2   C2        -0.691987552    -0.317626891    -0.811816764     C.3   1  noname   -0.163055
    3   S3        -1.468796280     0.030596973     0.793277179     S.3   1  noname   -0.093135
    4   C4         0.000034878     0.000045464     1.750064813     C.2   1  noname    0.234545
    5   S5        -0.000119988     0.000222678     3.372927267     S.2   1  noname   -0.265239
    6   S6         1.468854604    -0.030857762     0.793133118     S.3   1  noname   -0.093195
    7   H7         1.317394980    -0.103198991    -1.588399717       H   1  noname    0.149605
    8   H8         0.629503197     1.388082997    -0.954416123       H   1  noname    0.121872
    9   H9        -0.629496446    -1.388203700    -0.954771003       H   1  noname    0.121919
   10   H10       -1.317463969     0.103418947    -1.588183439       H   1  noname    0.149588


@<TRIPOS>BOND
    1      1      2    1
    2      2      3    1
    3      3      4    1
    4      4      5    2
    5      4      6    1
    6      6      1    1
    7      1      7    1
    8      1      8    1
    9      2      9    1
   10      2     10    1
#
#	File Created by: Spartan'20 Export
#

@<TRIPOS>MOLECULE
M0063
10 10
SMALL
USER_CHARGES


@<TRIPOS>ATOM
    1   C1        -0.259859789    -0.000000039     0.678435980     C.3   1  noname   -0.504810
    2   C2         0.110172429    -1.148171952    -0.280606148     C.3   1  noname    0.055554
    3   S3         0.158528592     0.000000050    -1.710517709     S.3   1  noname   -0.249785
    4   C4         0.110173091     1.148171781    -0.280605810     C.3   1  noname    0.055555
    5   H5         0.274466296    -0.000000128     1.621848786       H   1  noname    0.168728
    6   H6        -1.322248879     0.000000527     0.889042691       H   1  noname    0.171222
    7   H7        -0.618323936    -1.940822376    -0.373637365       H   1  noname    0.078252
    8   H8         1.082707436    -1.579151460    -0.085162034       H   1  noname    0.073516
    9   H9        -0.618323330     1.940822136    -0.373637078       H   1  noname    0.078252
   10   H10        1.082708090     1.579151460    -0.085161314       H   1  noname    0.073516


@<TRIPOS>BOND
    1      1      2    1
    2      2      3    1
    3      3      4    1
    4      4      1    1
    5      1      5    1
    6      1      6    1
    7      2      7    1
    8      2      8    1
    9      4      9    1
   10      4     10    1
#
#	File Created by: Spartan'20 Export
#

@<TRIPOS>MOLECULE
M0064
15 15
SMALL
USER_CHARGES


@<TRIPOS>ATOM
    1   C1         0.841673766    -0.792711417    -0.668132343     C.3   1  noname   -0.025306
    2   C2         1.507383724     0.469487728    -0.120772635     C.3   1  noname   -0.112598
    3   S3         0.384887046     1.905043907    -0.236551974     S.3   1  noname   -0.249759
    4   C4        -1.214904999     1.030424771    -0.137343249     C.3   1  noname   -0.168365
    5   C5        -1.126981842    -0.217769850     0.729889231     C.3   1  noname    0.057952
    6   N6        -0.315549233    -1.247023311     0.091577227     N.3   1  noname   -0.730316
    7   H7         0.550439717    -0.612024850    -1.697569957       H   1  noname    0.117308
    8   H8         1.563866648    -1.601762305    -0.688193464       H   1  noname    0.085885
    9   H9         2.389797264     0.713607487    -0.698759362       H   1  noname    0.110232
   10   H10        1.812577644     0.324556512     0.908704963       H   1  noname    0.116889
   11   H11       -1.920805350     1.731055361     0.288622128       H   1  noname    0.128437
   12   H12       -1.558631248     0.770393994    -1.130148564       H   1  noname    0.153181
   13   H13       -2.125761125    -0.616329290     0.879850478       H   1  noname    0.062249
   14   H14       -0.746074591     0.071268158     1.709791519       H   1  noname    0.076426
   15   H15       -0.041917420    -1.928216895     0.769036002       H   1  noname    0.377785


@<TRIPOS>BOND
    1      1      2    1
    2      2      3    1
    3      3      4    1
    4      4      5    1
    5      5      6    1
    6      6      1    1
    7      1      7    1
    8      1      8    1
    9      2      9    1
   10      2     10    1
   11      4     11    1
   12      4     12    1
   13      5     13    1
   14      5     14    1
   15      6     15    1
#
#	File Created by: Spartan'20 Export
#

@<TRIPOS>MOLECULE
M0065
14 14
SMALL
USER_CHARGES


@<TRIPOS>ATOM
    1   C1         0.681052349     1.394752660     0.343285838     C.3   1  noname   -0.184405
    2   C2        -0.681058753     1.394711372    -0.343272477     C.3   1  noname   -0.184485
    3   S3        -1.741042047    -0.000004578     0.137815672     S.3   1  noname   -0.190035
    4   C4        -0.681054659    -1.394713014    -0.343276363     C.3   1  noname   -0.184486
    5   C5         0.681049150    -1.394755792     0.343294885     C.3   1  noname   -0.184405
    6   S6         1.741055793    -0.000005335    -0.137636476     S.3   1  noname   -0.190083
    7   H7         1.233282655     2.283048473     0.058077875       H   1  noname    0.147180
    8   H8         0.561308536     1.408341588     1.419539469       H   1  noname    0.132280
    9   H9        -0.561319686     1.408136082    -1.419528259       H   1  noname    0.132293
   10   H10       -1.233275279     2.283059419    -0.058195248       H   1  noname    0.147196
   11   H11       -0.561300943    -1.408117258    -1.419530798       H   1  noname    0.132293
   12   H12       -1.233276977    -2.283066211    -0.058223566       H   1  noname    0.147197
   13   H13        1.233278671    -2.283057205     0.058100828       H   1  noname    0.147181
   14   H14        0.561301190    -1.408330201     1.419548621       H   1  noname    0.132280


@<TRIPOS>BOND
    1      1      2    1
    2      2      3    1
    3      3      4    1
    4      4      5    1
    5      5      6    1
    6      6      1    1
    7      1      7    1
    8      1      8    1
    9      2      9    1
   10      2     10    1
   11      4     11    1
   12      4     12    1
   13      5     13    1
   14      5     14    1
#
#	File Created by: Spartan'20 Export
#

@<TRIPOS>MOLECULE
M0066
12 12
SMALL
USER_CHARGES


@<TRIPOS>ATOM
    1   C1        -0.675473484    -0.611416427    -0.406841239     C.3   1  noname   -0.066525
    2   C2        -1.212504691     0.637171432     0.284645219     C.3   1  noname   -0.074267
    3   S3         0.198324739     1.276377016     1.252907092     S.3   1  noname   -0.241351
    4   C4         1.399115680     0.235972935     0.346306055     C.3   1  noname    0.149071
    5   N5         0.675478781    -0.264465920    -0.805071585     N.3   1  noname   -0.690283
    6   H6        -1.264259314    -0.861131596    -1.281918868       H   1  noname    0.108116
    7   H7        -0.712381397    -1.456911323     0.282950408       H   1  noname    0.090491
    8   H8        -2.040663179     0.418859712     0.944279546       H   1  noname    0.096563
    9   H9        -1.518008333     1.377717128    -0.440567748       H   1  noname    0.119342
   10   H10        1.753250702    -0.548781311     1.010078156       H   1  noname    0.054919
   11   H11        2.241540558     0.836103723     0.032778841       H   1  noname    0.088867
   12   H12        1.155579936    -1.039495367    -1.219545876       H   1  noname    0.365057


@<TRIPOS>BOND
    1      1      2    1
    2      2      3    1
    3      3      4    1
    4      4      5    1
    5      5      1    1
    6      1      6    1
    7      1      7    1
    8      2      8    1
    9      2      9    1
   10      4     10    1
   11      4     11    1
   12      5     12    1
#
#	File Created by: Spartan'20 Export
#

@<TRIPOS>MOLECULE
M0067
11 11
SMALL
USER_CHARGES


@<TRIPOS>ATOM
    1   C1        -0.687940409     0.326325802    -0.948949436     C.3   1  noname   -0.191918
    2   C2         0.687252631    -0.324234036    -0.943654401     C.3   1  noname   -0.197276
    3   S3         1.495921788     0.103175872     0.624865317     S.3   1  noname   -0.206230
    4   C4         0.001093029    -0.000836828     1.664298559     C.3   1  noname    0.032643
    5   S5        -1.499323577    -0.070390882     0.627163026     S.3   1  noname   -0.208162
    6   H6        -0.605340040     1.397601859    -1.071540501       H   1  noname    0.127689
    7   H7        -1.308798398    -0.070164822    -1.743038836       H   1  noname    0.158670
    8   H8         1.307811236     0.058054768    -1.744671227       H   1  noname    0.160892
    9   H9         0.604994806    -1.397562265    -1.046576347       H   1  noname    0.128877
   10   H10       -0.021295076     0.867237665     2.305180176       H   1  noname    0.098507
   11   H11        0.025624010    -0.889207134     2.276923670       H   1  noname    0.096309


@<TRIPOS>BOND
    1      1      2    1
    2      2      3    1
    3      3      4    1
    4      4      5    1
    5      5      1    1
    6      1      6    1
    7      1      7    1
    8      2      8    1
    9      2      9    1
   10      4     10    1
   11      4     11    1
#
#	File Created by: Spartan'20 Export
#

@<TRIPOS>MOLECULE
M0068
14 14
SMALL
USER_CHARGES


@<TRIPOS>ATOM
    1   C1        -0.000014878     0.000033739    -1.359705835     C.3   1  noname   -0.199613
    2   C2         1.115566097     0.642114713    -0.523976007     C.3   1  noname   -0.052492
    3   S3         1.513417933    -0.297838926     0.978784810     S.3   1  noname   -0.253283
    4   C4        -0.000011430     0.000010191     1.952408135     C.3   1  noname    0.014679
    5   S5        -1.513482122     0.297675316     0.978805035     S.3   1  noname   -0.253292
    6   C6        -1.115539306    -0.642176224    -0.523997463     C.3   1  noname   -0.052485
    7   H7         0.421009855    -0.765887798    -2.004183016       H   1  noname    0.087600
    8   H8        -0.421083203     0.766044797    -2.004056296       H   1  noname    0.087596
    9   H9         0.852940089     1.651223862    -0.238321583       H   1  noname    0.083793
   10   H10        2.034564243     0.697342488    -1.093694282       H   1  noname    0.118670
   11   H11       -0.129343454    -0.866372498     2.585129744       H   1  noname    0.108192
   12   H12        0.129350477     0.866544615     2.584929933       H   1  noname    0.108176
   13   H13       -0.852842021    -1.651281311    -0.238400498       H   1  noname    0.083791
   14   H14       -2.034532281    -0.697432964    -1.093722678       H   1  noname    0.118668


@<TRIPOS>BOND
    1      1      2    1
    2      2      3    1
    3      3      4    1
    4      4      5    1
    5      5      6    1
    6      6      1    1
    7      1      7    1
    8      1      8    1
    9      2      9    1
   10      2     10    1
   11      4     11    1
   12      4     12    1
   13      6     13    1
   14      6     14    1
#
#	File Created by: Spartan'20 Export
#

@<TRIPOS>MOLECULE
M0069
22 24
SMALL
USER_CHARGES


@<TRIPOS>ATOM
    1   C1        -1.366188158     0.000003633     0.966638404     C.3   1  noname    0.139589
    2   N2         0.000492424    -0.000002143     1.481265861     N.3   1  noname   -0.627977
    3   C3         0.682928375     1.183862573     0.965869869     C.3   1  noname    0.128447
    4   N4         0.698247541     1.209488722    -0.494091345     N.3   1  noname   -0.630857
    5   C5        -0.683485289     1.183338906    -0.966196793     C.3   1  noname    0.204589
    6   N6        -1.396811909    -0.000001471    -0.493517336     N.3   1  noname   -0.642714
    7   C7        -0.683483683    -1.183337681    -0.966203285     C.3   1  noname    0.204605
    8   N8         0.698245172    -1.209495221    -0.494089811     N.3   1  noname   -0.630865
    9   C9         0.682935158    -1.183863498     0.965870820     C.3   1  noname    0.128465
   10   C10        1.366856527    -0.000004632    -0.965901083     C.3   1  noname    0.135431
   11   H11       -1.885792714    -0.876642249     1.334525285       H   1  noname    0.136862
   12   H12       -1.885784134     0.876655870     1.334524220       H   1  noname    0.136863
   13   H13        1.701919348     1.195844526     1.333375495       H   1  noname    0.141941
   14   H14        0.183716726     2.072616594     1.333349982       H   1  noname    0.141761
   15   H15       -0.690248739     1.194845814    -2.049511760       H   1  noname    0.118853
   16   H16       -1.196623126     2.071948904    -0.618485816       H   1  noname    0.118928
   17   H17       -1.196622942    -2.071949006    -0.618501042       H   1  noname    0.118925
   18   H18       -0.690242898    -1.194840361    -2.049519687       H   1  noname    0.118851
   19   H19        1.701927855    -1.195836449     1.333374352       H   1  noname    0.141939
   20   H20        0.183734450    -2.072621012     1.333354976       H   1  noname    0.141758
   21   H21        1.381605420    -0.000007023    -2.049190013       H   1  noname    0.137120
   22   H22        2.392674595    -0.000004795    -0.616910776       H   1  noname    0.137488


@<TRIPOS>BOND
    1      1      2    1
    2      2      3    1
    3      3      4    1
    4      4      5    1
    5      5      6    1
    6      6      7    1
    7      7      8    1
    8      8      9    1
    9      8     10    1
   10      6      1    1
   11      9      2    1
   12     10      4    1
   13      1     11    1
   14      1     12    1
   15      3     13    1
   16      3     14    1
   17      5     15    1
   18      5     16    1
   19      7     17    1
   20      7     18    1
   21      9     19    1
   22      9     20    1
   23     10     21    1
   24     10     22    1
#
#	File Created by: Spartan'20 Export
#

@<TRIPOS>MOLECULE
M0070
12 12
SMALL
USER_CHARGES


@<TRIPOS>ATOM
    1   C1        -1.120652823     0.293602941     0.679925809     C.3   1  noname    0.294574
    2   O2         0.000007680     0.000027842     1.455095588     O.3   1  noname   -0.473287
    3   C3         1.120649473    -0.293601324     0.679923838     C.3   1  noname    0.294561
    4   O4         1.072571822     0.397316870    -0.523948424     O.3   1  noname   -0.438884
    5   C5         0.000008032     0.000003324    -1.318561152     C.3   1  noname    0.207521
    6   O6        -1.072549766    -0.397315445    -0.523943247     O.3   1  noname   -0.438888
    7   H7        -1.173784545     1.363192425     0.499765437       H   1  noname    0.080553
    8   H8        -1.996614214    -0.036257405     1.213440963       H   1  noname    0.096917
    9   H9         1.173731118    -1.363192653     0.499759901       H   1  noname    0.080556
   10   H10        1.996624719     0.036220966     1.213441563       H   1  noname    0.096923
   11   H11       -0.261010688     0.849940724    -1.937451019       H   1  noname    0.099727
   12   H12        0.261019192    -0.849938266    -1.937449258       H   1  noname    0.099726


@<TRIPOS>BOND
    1      1      2    1
    2      2      3    1
    3      3      4    1
    4      4      5    1
    5      5      6    1
    6      6      1    1
    7      1      7    1
    8      1      8    1
    9      3      9    1
   10      3     10    1
   11      5     11    1
   12      5     12    1
#
#	File Created by: Spartan'20 Export
#

@<TRIPOS>MOLECULE
M0071
26 28
SMALL
USER_CHARGES


@<TRIPOS>ATOM
    1   C1         0.379312919     1.253181362    -1.215202821     C.3   1  noname   -0.901308
    2   C2        -0.468607268     0.000000487    -1.485066195     C.3   1  noname    0.824074
    3   C3         0.379312145    -1.253180911    -1.215203422     C.3   1  noname   -0.901308
    4   C4         0.845508790    -1.256278978     0.250175582     C.3   1  noname    0.625244
    5   C5         1.681073803    -0.000000246     0.541791239     C.3   1  noname   -0.813454
    6   C6         0.845509077     1.256278889     0.250176279     C.3   1  noname    0.625244
    7   C7        -0.389610564     1.263729838     1.145336426     C.3   1  noname   -0.180880
    8   C8        -1.218935106    -0.000000183     0.919090471     C.3   1  noname    0.534912
    9   C9        -1.689779362     0.000000078    -0.548646857     C.3   1  noname   -0.935754
   10   C10       -0.389610359    -1.263730148     1.145336334     C.3   1  noname   -0.180881
   11   F11       -0.004919042    -1.358289837     2.460268902       F   1  noname   -0.248870
   12   F12       -0.004920349     1.358290128     2.460269115       F   1  noname   -0.248870
   13   H13       -0.198610937     2.149529797    -1.429917903       H   1  noname    0.185569
   14   H14        1.242280236     1.271847449    -1.875333523       H   1  noname    0.210024
   15   H15       -0.804897132     0.000000772    -2.517949088       H   1  noname   -0.035208
   16   H16       -0.198612691    -2.149528731    -1.429918291       H   1  noname    0.185569
   17   H17        1.242279384    -1.271848068    -1.875334342       H   1  noname    0.210024
   18   H18        1.429502323    -2.147769267     0.457868438       H   1  noname   -0.007076
   19   H19        2.574679991     0.000000407    -0.077035279       H   1  noname    0.189492
   20   H20        2.004201084    -0.000000742     1.575275959       H   1  noname    0.213596
   21   H21        1.429502545     2.147769060     0.457869956       H   1  noname   -0.007076
   22   H22       -0.998819019     2.138111434     0.942564560       H   1  noname    0.115975
   23   H23       -2.065250243     0.000000044     1.598610786       H   1  noname    0.011809
   24   H24       -2.310886436     0.871337251    -0.738795451       H   1  noname    0.206588
   25   H25       -2.310884861    -0.871337949    -0.738796304       H   1  noname    0.206588
   26   H26       -0.998818926    -2.138111935     0.942565433       H   1  noname    0.115975


@<TRIPOS>BOND
    1      1      2    1
    2      2      3    1
    3      3      4    1
    4      4      5    1
    5      5      6    1
    6      6      7    1
    7      7      8    1
    8      8      9    1
    9      8     10    1
   10     10     11    1
   11      7     12    1
   12      6      1    1
   13      9      2    1
   14     10      4    1
   15      1     13    1
   16      1     14    1
   17      2     15    1
   18      3     16    1
   19      3     17    1
   20      4     18    1
   21      5     19    1
   22      5     20    1
   23      6     21    1
   24      7     22    1
   25      8     23    1
   26      9     24    1
   27      9     25    1
   28     10     26    1
#
#	File Created by: Spartan'20 Export
#

@<TRIPOS>MOLECULE
M0072
7 6
SMALL
USER_CHARGES


@<TRIPOS>ATOM
    1   C1        -0.386027182     0.000000000    -0.972233775     C.2   1  noname   -0.347500
    2   C2         0.486634806     0.000000000     0.018557850     C.2   1  noname   -0.196523
    3   C3         0.079745667     0.000000000     1.402968104     C.1   1  noname    0.391702
    4   N4        -0.225924545     0.000000000     2.497358674     N.1   1  noname   -0.452632
    5   H5        -0.055031218     0.000000000    -1.994013129       H   1  noname    0.198396
    6   H6        -1.445838920     0.000000000    -0.796501286       H   1  noname    0.218360
    7   H7         1.546441392     0.000000000    -0.156136438       H   1  noname    0.188196


@<TRIPOS>BOND
    1      1      2    2
    2      2      3    1
    3      3      4    3
    4      1      5    1
    5      1      6    1
    6      2      7    1
#
#	File Created by: Spartan'20 Export
#

@<TRIPOS>MOLECULE
M0073
11 10
SMALL
USER_CHARGES


@<TRIPOS>ATOM
    1   C1        -1.501153111     0.867176625    -0.385727628     C.2   1  noname   -0.486406
    2   C2        -0.462021730     0.509239512     0.343020074     C.2   1  noname   -0.261639
    3   C3         0.272309561    -0.802375321     0.216744338     C.3   1  noname    0.460319
    4   N4         1.685235874    -0.685366870    -0.119636147     N.3   1  noname   -1.072899
    5   H5        -1.915317333     0.217607465    -1.138641419       H   1  noname    0.195463
    6   H6        -1.983599588     1.819934278    -0.257940994       H   1  noname    0.205306
    7   H7        -0.078897136     1.193514546     1.086432094       H   1  noname    0.155234
    8   H8        -0.206241788    -1.416130530    -0.538203869       H   1  noname    0.021097
    9   H9         0.205761566    -1.350176613     1.151957934       H   1  noname   -0.001212
   10   H10        2.185117364    -0.202108822     0.602144749       H   1  noname    0.384919
   11   H11        1.798806321    -0.151314270    -0.960149132       H   1  noname    0.399819


@<TRIPOS>BOND
    1      1      2    2
    2      2      3    1
    3      3      4    1
    4      1      5    1
    5      1      6    1
    6      2      7    1
    7      3      8    1
    8      3      9    1
    9      4     10    1
   10      4     11    1
#
#	File Created by: Spartan'20 Export
#

@<TRIPOS>MOLECULE
M0074
25 24
SMALL
USER_CHARGES


@<TRIPOS>ATOM
    1   C1         1.839332467    -1.246800868     2.094658263     C.2   1  noname   -0.488362
    2   C2         0.923709881    -1.296050561     1.148995903     C.2   1  noname   -0.114053
    3   C3        -0.122381608    -0.241627795     0.894051605     C.3   1  noname   -0.034187
    4   N4        -0.264730718     0.092125818    -0.522497111     N.3   1  noname   -0.316985
    5   C5        -1.654606345     0.242484065    -0.931680454     C.3   1  noname   -0.180759
    6   C6        -2.392817165    -1.068627543    -0.933109419     C.2   1  noname    0.005467
    7   C7        -3.560743189    -1.279754192    -0.359328834     C.2   1  noname   -0.548492
    8   C8         0.535956334     1.234560207    -0.937428021     C.3   1  noname   -0.161491
    9   C9         2.017479512     1.025432458    -0.784288252     C.2   1  noname   -0.003756
   10   C10        2.844149259     1.913630786    -0.270597571     C.2   1  noname   -0.508634
   11   H11        1.942711608    -0.392278009     2.742506115       H   1  noname    0.198030
   12   H12        2.529154767    -2.056772378     2.254958947       H   1  noname    0.190627
   13   H13        0.858649560    -2.161444305     0.508737018       H   1  noname    0.148666
   14   H14       -1.070947072    -0.638127366     1.238794732       H   1  noname    0.128070
   15   H15        0.081939711     0.645485548     1.494441734       H   1  noname    0.121838
   16   H16       -1.655189592     0.627082060    -1.946930117       H   1  noname    0.139189
   17   H17       -2.191726056     0.971900524    -0.319395691       H   1  noname    0.113133
   18   H18       -1.906309436    -1.865023085    -1.473180261       H   1  noname    0.128904
   19   H19       -4.070374120    -0.508384680     0.193322263       H   1  noname    0.211557
   20   H20       -4.057274849    -2.231376683    -0.422501942       H   1  noname    0.204559
   21   H21        0.243975200     2.147367179    -0.411012773       H   1  noname    0.112840
   22   H22        0.332459200     1.401285881    -1.990953633       H   1  noname    0.127940
   23   H23        2.397648561     0.094228022    -1.167252023       H   1  noname    0.138928
   24   H24        2.496131926     2.852235972     0.125947107       H   1  noname    0.196850
   25   H25        3.903802162     1.738448945    -0.226257585       H   1  noname    0.190120


@<TRIPOS>BOND
    1      1      2    2
    2      2      3    1
    3      3      4    1
    4      4      5    1
    5      5      6    1
    6      6      7    2
    7      4      8    1
    8      8      9    1
    9      9     10    2
   10      1     11    1
   11      1     12    1
   12      2     13    1
   13      3     14    1
   14      3     15    1
   15      5     16    1
   16      5     17    1
   17      6     18    1
   18      7     19    1
   19      7     20    1
   20      8     21    1
   21      8     22    1
   22      9     23    1
   23     10     24    1
   24     10     25    1
#
#	File Created by: Spartan'20 Export
#

@<TRIPOS>MOLECULE
M0075
18 17
SMALL
USER_CHARGES


@<TRIPOS>ATOM
    1   C1         2.040921889     0.803838413    -1.124643952     C.2   1  noname   -0.454843
    2   C2         1.984708076    -0.511862588    -1.073836530     C.2   1  noname   -0.124486
    3   C3         1.243893343    -1.326569852    -0.041159953     C.3   1  noname    0.044225
    4   N4         0.314314962    -0.551929243     0.756215063     N.3   1  noname   -0.675007
    5   C5        -0.979574821    -0.336451378     0.125905438     C.3   1  noname    0.243453
    6   C6        -1.881041445     0.480576858     1.009208867     C.2   1  noname   -0.205637
    7   C7        -2.480028724     1.597786279     0.650594162     C.2   1  noname   -0.468784
    8   H8         2.608303496     1.307038724    -1.887831651       H   1  noname    0.177380
    9   H9         1.527867031     1.415562404    -0.405649875       H   1  noname    0.216476
   10   H10        2.519593788    -1.094128558    -1.808477748       H   1  noname    0.125329
   11   H11        0.753221800    -2.164371228    -0.546051924       H   1  noname    0.044205
   12   H12        1.977192285    -1.769808068     0.628134987       H   1  noname    0.095918
   13   H13        0.186190060    -0.992767907     1.644537085       H   1  noname    0.337033
   14   H14       -1.472386697    -1.285248841    -0.111669063       H   1  noname    0.005362
   15   H15       -0.824230576     0.178824964    -0.813151532       H   1  noname    0.092507
   16   H16       -2.043867354     0.092947357     2.004233870       H   1  noname    0.156935
   17   H17       -2.347057745     2.024819197    -0.328958314       H   1  noname    0.192413
   18   H18       -3.128019369     2.131743465     1.322601070       H   1  noname    0.197521


@<TRIPOS>BOND
    1      1      2    2
    2      2      3    1
    3      3      4    1
    4      4      5    1
    5      5      6    1
    6      6      7    2
    7      1      8    1
    8      1      9    1
    9      2     10    1
   10      3     11    1
   11      3     12    1
   12      4     13    1
   13      5     14    1
   14      5     15    1
   15      6     16    1
   16      7     17    1
   17      7     18    1
#
#	File Created by: Spartan'20 Export
#

@<TRIPOS>MOLECULE
M0076
10 9
SMALL
USER_CHARGES


@<TRIPOS>ATOM
    1   C1         1.524644907     0.279665046    -0.209749702     C.2   1  noname   -0.557569
    2   C2         0.470995630    -0.220190316     0.405503891     C.2   1  noname   -0.133771
    3   C3        -0.879004589    -0.402344015    -0.230148831     C.3   1  noname    0.233026
    4   O4        -1.896240887     0.227761631     0.504853286     O.3   1  noname   -0.699126
    5   H5         2.473164911     0.386176674     0.285770489       H   1  noname    0.222235
    6   H6         1.483585612     0.597216225    -1.238245198       H   1  noname    0.220471
    7   H7         0.540475368    -0.523711329     1.438005066       H   1  noname    0.155880
    8   H8        -1.144650639    -1.452133960    -0.250358318       H   1  noname    0.078722
    9   H9        -0.861067665    -0.048404800    -1.258429686       H   1  noname    0.034797
   10   H10       -1.711902647     1.155964843     0.552799004       H   1  noname    0.445334


@<TRIPOS>BOND
    1      1      2    2
    2      2      3    1
    3      3      4    1
    4      1      5    1
    5      1      6    1
    6      2      7    1
    7      3      8    1
    8      3      9    1
    9      4     10    1
#
#	File Created by: Spartan'20 Export
#

@<TRIPOS>MOLECULE
M0077
17 16
SMALL
USER_CHARGES


@<TRIPOS>ATOM
    1   C1         2.856191950    -0.826787416    -0.539501853     C.2   1  noname   -0.555725
    2   C2         2.146947684    -0.133742007     0.328974338     C.2   1  noname   -0.033410
    3   C3         1.242228640     1.017036552    -0.024720010     C.3   1  noname   -0.028864
    4   O4        -0.038743781     0.887126364     0.524094681     O.3   1  noname   -0.409935
    5   C5        -0.862674503    -0.058123845    -0.101081715     C.3   1  noname    0.213058
    6   C6        -2.154541692    -0.136839608     0.656133875     C.2   1  noname   -0.139350
    7   C7        -3.349153646    -0.061324130     0.105135125     C.2   1  noname   -0.493959
    8   H8         3.512831159    -1.620548129    -0.230025300       H   1  noname    0.211628
    9   H9         2.814426751    -0.625207350    -1.596709270       H   1  noname    0.215496
   10   H10        2.205899559    -0.364149637     1.380702982       H   1  noname    0.142707
   11   H11        1.187686184     1.137189384    -1.105097057       H   1  noname    0.097800
   12   H12        1.642997257     1.935228270     0.389061171       H   1  noname    0.119450
   13   H13       -0.377848156    -1.032583451    -0.106571557       H   1  noname    0.047202
   14   H14       -1.044770765     0.223911028    -1.136922439       H   1  noname    0.058562
   15   H15       -2.054499122    -0.284761150     1.718797598       H   1  noname    0.156180
   16   H16       -4.246877644    -0.153772821     0.689714533       H   1  noname    0.201024
   17   H17       -3.480099877     0.097347946    -0.951985103       H   1  noname    0.198135


@<TRIPOS>BOND
    1      1      2    2
    2      2      3    1
    3      3      4    1
    4      4      5    1
    5      5      6    1
    6      6      7    2
    7      1      8    1
    8      1      9    1
    9      2     10    1
   10      3     11    1
   11      3     12    1
   12      5     13    1
   13      5     14    1
   14      6     15    1
   15      7     16    1
   16      7     17    1
#
#	File Created by: Spartan'20 Export
#

@<TRIPOS>MOLECULE
M0078
15 15
SMALL
USER_CHARGES


@<TRIPOS>ATOM
    1   C1         0.147535814     0.000000000     2.805021883     C.2   1  noname   -0.382799
    2   C2        -0.693910250     0.000000000     1.786232681     C.2   1  noname   -0.379111
    3   C3        -0.354223886     0.000000000     0.344518628     C.2   1  noname    0.856044
    4   C4         0.954150191     0.000000000    -0.137766159     C.2   1  noname   -0.623487
    5   C5         1.161824067     0.000000000    -1.501187275     C.2   1  noname    0.214950
    6   C6         0.066536190     0.000000000    -2.350293878     C.2   1  noname   -0.507321
    7   C7        -1.190163799     0.000000000    -1.776056053     C.2   1  noname    0.422777
    8   N8        -1.398387473     0.000000000    -0.472429490     N.2   1  noname   -0.741987
    9   H9         1.216369172     0.000000000     2.687893026       H   1  noname    0.176659
   10   H10       -0.216071620     0.000000000     3.816297813       H   1  noname    0.194346
   11   H11       -1.753577073     0.000000000     1.969414191       H   1  noname    0.199429
   12   H12        1.787780658     0.000000000     0.537659217       H   1  noname    0.223906
   13   H13        2.161847491     0.000000000    -1.897155319       H   1  noname    0.100038
   14   H14        0.181554950     0.000000000    -3.418211558       H   1  noname    0.188797
   15   H15       -2.071264431     0.000000000    -2.393937707       H   1  noname    0.057760


@<TRIPOS>BOND
    1      1      2    2
    2      2      3    1
    3      3      4    2
    4      4      5    1
    5      5      6    2
    6      6      7    1
    7      7      8    2
    8      8      3    1
    9      1      9    1
   10      1     10    1
   11      2     11    1
   12      4     12    1
   13      5     13    1
   14      6     14    1
   15      7     15    1
#
#	File Created by: Spartan'20 Export
#

@<TRIPOS>MOLECULE
M0079
15 15
SMALL
USER_CHARGES


@<TRIPOS>ATOM
    1   C1        -0.335630522     0.000000000     2.631153775     C.2   1  noname   -0.373551
    2   C2         0.528477126     0.000000000     1.631254323     C.2   1  noname   -0.353533
    3   C3         0.212969183     0.000000000     0.185660027     C.2   1  noname    0.707197
    4   C4         1.249262486     0.000000000    -0.739664369     C.2   1  noname   -0.714906
    5   C5         0.954074362     0.000000000    -2.092676720     C.2   1  noname    0.519489
    6   N6        -0.272824401     0.000000000    -2.573041815     N.2   1  noname   -0.693126
    7   C7        -1.262877856     0.000000000    -1.694699160     C.2   1  noname    0.465844
    8   C8        -1.082700133     0.000000000    -0.326552420     C.2   1  noname   -0.658865
    9   H9        -1.400710404     0.000000000     2.486316749       H   1  noname    0.190813
   10   H10        0.003939907     0.000000000     3.650769634       H   1  noname    0.190584
   11   H11        1.580864999     0.000000000     1.862042315       H   1  noname    0.192776
   12   H12        2.274711411     0.000000000    -0.416420877       H   1  noname    0.217273
   13   H13        1.749933549     0.000000000    -2.817147276       H   1  noname    0.040391
   14   H14       -2.258020775     0.000000000    -2.104376353       H   1  noname    0.049566
   15   H15       -1.941468930     0.000000000     0.317382167       H   1  noname    0.220047


@<TRIPOS>BOND
    1      1      2    2
    2      2      3    1
    3      3      4    2
    4      4      5    1
    5      5      6    2
    6      6      7    1
    7      7      8    2
    8      8      3    1
    9      1      9    1
   10      1     10    1
   11      2     11    1
   12      4     12    1
   13      5     13    1
   14      7     14    1
   15      8     15    1
#
#	File Created by: Spartan'20 Export
#

@<TRIPOS>MOLECULE
M0080
6 5
SMALL
USER_CHARGES


@<TRIPOS>ATOM
    1   C1        -0.000002460     0.000000142    -0.494714266     C.3   1  noname   -0.677969
    2   C2         0.000001167    -0.000000008     0.973049941     C.1   1  noname    0.475861
    3   N3         0.000002814    -0.000000160     2.107782780     N.1   1  noname   -0.484060
    4   H4        -0.509013995    -0.881636021    -0.862043734       H   1  noname    0.228842
    5   H5         1.018026490    -0.000000003    -0.862030414       H   1  noname    0.228485
    6   H6        -0.509014016     0.881636050    -0.862044308       H   1  noname    0.228842


@<TRIPOS>BOND
    1      1      2    1
    2      2      3    3
    3      1      4    1
    4      1      5    1
    5      1      6    1
#
#	File Created by: Spartan'20 Export
#

@<TRIPOS>MOLECULE
M0081
10 9
SMALL
USER_CHARGES


@<TRIPOS>ATOM
    1   C1         1.288145295     0.000189686    -0.155876283     C.3   1  noname   -0.811308
    2   C2        -0.000000290     0.000026235     0.639370857     C.2   1  noname    0.970481
    3   O3        -0.000000063     0.000110530     1.831699192     O.2   1  noname   -0.592601
    4   C4        -1.288145544    -0.000201201    -0.155876036     C.3   1  noname   -0.811309
    5   H5         1.335537284     0.875481469    -0.797361759       H   1  noname    0.205779
    6   H6         1.334595039    -0.873460490    -0.799656916       H   1  noname    0.205905
    7   H7         2.134105642    -0.001095707     0.517359355       H   1  noname    0.210685
    8   H8        -2.134106637     0.000929888     0.517359091       H   1  noname    0.210686
    9   H9        -1.334684470     0.873480973    -0.799597346       H   1  noname    0.205917
   10   H10       -1.335446254    -0.875461383    -0.797420154       H   1  noname    0.205767


@<TRIPOS>BOND
    1      1      2    1
    2      2      3    2
    3      2      4    1
    4      1      5    1
    5      1      6    1
    6      1      7    1
    7      4      8    1
    8      4      9    1
    9      4     10    1
#
#	File Created by: Spartan'20 Export
#

@<TRIPOS>MOLECULE
M0082
9 8
SMALL
USER_CHARGES


@<TRIPOS>ATOM
    1   C1         0.537474854    -0.000007809    -1.229751633     C.3   1  noname   -0.820491
    2   C2        -0.685210609    -0.000007690    -0.348096652     C.2   1  noname    0.927700
    3   O3        -1.798097519    -0.000053717    -0.768171732     O.2   1  noname   -0.547635
    4   C4        -0.421201640     0.000010735     1.097318952     C.1   1  noname   -0.237604
    5   C5        -0.178880206     0.000017761     2.259722844     C.1   1  noname   -0.292919
    6   H6         1.144119565     0.875258239    -1.020718092       H   1  noname    0.223187
    7   H7         1.144068794    -0.875315196    -1.020813762       H   1  noname    0.223201
    8   H8         0.233875939     0.000072392    -2.267319985       H   1  noname    0.218794
    9   H9         0.023850824     0.000025284     3.297830060       H   1  noname    0.305767


@<TRIPOS>BOND
    1      1      2    1
    2      2      3    2
    3      2      4    1
    4      4      5    3
    5      1      6    1
    6      1      7    1
    7      1      8    1
    8      5      9    1
#
#	File Created by: Spartan'20 Export
#

@<TRIPOS>MOLECULE
M0083
12 11
SMALL
USER_CHARGES


@<TRIPOS>ATOM
    1   C1        -0.560863510     0.000046695    -1.894786390     C.3   1  noname   -0.709435
    2   C2         0.340959905     0.000025702    -0.689643303     C.2   1  noname    0.621946
    3   O3         1.529986369     0.000228475    -0.746328824     O.2   1  noname   -0.508837
    4   C4        -0.340960230    -0.000078821     0.689643877     C.2   1  noname    0.621946
    5   O5        -1.529986704    -0.000199507     0.746329447     O.2   1  noname   -0.508837
    6   C6         0.560863575    -0.000009000     1.894786179     C.3   1  noname   -0.709435
    7   H7        -1.206216291    -0.870993080    -1.879065595       H   1  noname    0.193035
    8   H8        -1.205506074     0.871519235    -1.879571170       H   1  noname    0.193107
    9   H9         0.042998325    -0.000520546    -2.791191779       H   1  noname    0.210184
   10   H10        1.205669342     0.871366943     1.879408053       H   1  noname    0.193083
   11   H11        1.206052984    -0.871145426     1.879227500       H   1  noname    0.193060
   12   H12       -0.042997688    -0.000240668     2.791192006       H   1  noname    0.210183


@<TRIPOS>BOND
    1      1      2    1
    2      2      3    2
    3      2      4    1
    4      4      5    2
    5      4      6    1
    6      1      7    1
    7      1      8    1
    8      1      9    1
    9      6     10    1
   10      6     11    1
   11      6     12    1
#
#	File Created by: Spartan'20 Export
#

@<TRIPOS>MOLECULE
M0084
10 9
SMALL
USER_CHARGES


@<TRIPOS>ATOM
    1   C1        -1.343583476    -0.216310621    -0.098747199     C.3   1  noname   -0.793551
    2   C2        -0.081095846     0.585518902    -0.322987600     C.2   1  noname    0.753222
    3   O3        -0.070199967     1.625118595    -0.880335419     O.2   1  noname   -0.494308
    4   C4         1.254844622    -0.017111547     0.212196987     C.3   1  noname    0.044694
    5   Cl5        1.169614752    -0.010715138     1.987877612      Cl   1  noname   -0.059550
    6   Cl6        2.637115711     0.927097617    -0.316888349      Cl   1  noname   -0.050807
    7   Cl7        1.413709206    -1.686104005    -0.373232334      Cl   1  noname   -0.062251
    8   H8        -1.524698731    -0.826550115    -0.977521157       H   1  noname    0.224013
    9   H9        -2.163126421     0.481590365     0.005380245       H   1  noname    0.240628
   10   H10       -1.292579850    -0.862534053     0.764257215       H   1  noname    0.197909


@<TRIPOS>BOND
    1      1      2    1
    2      2      3    2
    3      2      4    1
    4      4      5    1
    5      4      6    1
    6      4      7    1
    7      1      8    1
    8      1      9    1
    9      1     10    1
#
#	File Created by: Spartan'20 Export
#

@<TRIPOS>MOLECULE
M0085
10 9
SMALL
USER_CHARGES


@<TRIPOS>ATOM
    1   C1        -1.301761622     0.035433222    -0.285573554     C.3   1  noname   -0.710759
    2   C2        -0.133864639    -0.003871583     0.666829485     C.2   1  noname    0.759855
    3   O3        -0.250084816    -0.017044965     1.847481091     O.2   1  noname   -0.517868
    4   C4         1.291798942    -0.042253169     0.098233532     C.3   1  noname   -0.161935
    5   Cl5        1.684445482     1.509569229    -0.668600912      Cl   1  noname   -0.079859
    6   Cl6        1.505327262    -1.394907197    -1.028639394      Cl   1  noname   -0.081455
    7   H7        -2.172275734     0.380884894     0.253641084       H   1  noname    0.213607
    8   H8        -1.107962318     0.678653952    -1.134418106       H   1  noname    0.188909
    9   H9        -1.492106629    -0.963807718    -0.661240925       H   1  noname    0.197053
   10   H10        1.976484072    -0.182656666     0.912287698       H   1  noname    0.192452


@<TRIPOS>BOND
    1      1      2    1
    2      2      3    2
    3      2      4    1
    4      4      5    1
    5      4      6    1
    6      1      7    1
    7      1      8    1
    8      1      9    1
    9      4     10    1
#
#	File Created by: Spartan'20 Export
#

@<TRIPOS>MOLECULE
M0086
10 9
SMALL
USER_CHARGES


@<TRIPOS>ATOM
    1   C1         0.359695655    -0.000083744     1.269212222     C.3   1  noname   -0.703370
    2   C2        -0.652082652     0.000206111     0.154736214     C.2   1  noname    0.627611
    3   O3        -1.826046187     0.000871721     0.300888288     O.2   1  noname   -0.467883
    4   C4        -0.075459151    -0.000017498    -1.267861626     C.3   1  noname    0.503353
    5   F5        -1.009705249    -0.000650977    -2.180756754       F   1  noname   -0.188172
    6   F6         0.686516178    -1.067613735    -1.444019671       F   1  noname   -0.197891
    7   F7         0.685795575     1.067954215    -1.444684505       F   1  noname   -0.197849
    8   H8         0.995526784     0.875557327     1.198352893       H   1  noname    0.201442
    9   H9         0.995630135    -0.875687505     1.197745308       H   1  noname    0.201367
   10   H10       -0.159871088    -0.000535915     2.216387631       H   1  noname    0.221393


@<TRIPOS>BOND
    1      1      2    1
    2      2      3    2
    3      2      4    1
    4      4      5    1
    5      4      6    1
    6      4      7    1
    7      1      8    1
    8      1      9    1
    9      1     10    1
#
#	File Created by: Spartan'20 Export
#

@<TRIPOS>MOLECULE
M0087
10 9
SMALL
USER_CHARGES


@<TRIPOS>ATOM
    1   C1        -1.272641342     0.102201417    -0.331118586     C.3   1  noname   -0.803506
    2   C2        -0.073892102     0.381467202     0.540911828     C.2   1  noname    0.918757
    3   O3        -0.136657621     1.046338509     1.525744360     O.2   1  noname   -0.576344
    4   C4         1.291402914    -0.148141838     0.118510814     C.3   1  noname   -0.466222
    5   Cl5        1.250758063    -1.806491535    -0.547749366      Cl   1  noname   -0.119906
    6   H6        -2.073249260     0.770226283    -0.045713893       H   1  noname    0.218335
    7   H7        -1.032145346     0.230654414    -1.380616658       H   1  noname    0.205863
    8   H8        -1.598264642    -0.923224339    -0.199114044       H   1  noname    0.215109
    9   H9         1.697567603     0.491902917    -0.653386273       H   1  noname    0.200997
   10   H10        1.947121733    -0.144933030     0.972531818       H   1  noname    0.206918


@<TRIPOS>BOND
    1      1      2    1
    2      2      3    2
    3      2      4    1
    4      4      5    1
    5      1      6    1
    6      1      7    1
    7      1      8    1
    8      4      9    1
    9      4     10    1
#
#	File Created by: Spartan'20 Export
#

@<TRIPOS>MOLECULE
M0088
9 8
SMALL
USER_CHARGES


@<TRIPOS>ATOM
    1   C1        -1.082022208    -0.187424296    -0.126086659     C.3   1  noname   -0.764971
    2   C2         0.211972666     0.317053378     0.476791387     C.2   1  noname    1.023888
    3   O3         0.229642540     0.932555289     1.504639123     O.2   1  noname   -0.660664
    4   N4         1.338691801     0.036865741    -0.218867416    N.am   1  noname   -1.078787
    5   H5        -0.949642061    -0.709356583    -1.066080205       H   1  noname    0.192655
    6   H6        -1.558268191    -0.850864701     0.585911167       H   1  noname    0.205615
    7   H7        -1.741652154     0.657813401    -0.279133599       H   1  noname    0.209131
    8   H8         2.211856273     0.322458895     0.163551757       H   1  noname    0.435619
    9   H9         1.339421334    -0.519101123    -1.040725556       H   1  noname    0.437513


@<TRIPOS>BOND
    1      1      2    1
    2      2      3    2
    3      2      4    am
    4      1      5    1
    5      1      6    1
    6      1      7    1
    7      4      8    1
    8      4      9    1
#
#	File Created by: Spartan'20 Export
#

@<TRIPOS>MOLECULE
M0089
15 14
SMALL
USER_CHARGES


@<TRIPOS>ATOM
    1   C1         2.004447425    -0.163902995     0.256595170     C.3   1  noname   -0.729568
    2   C2         0.742944478     0.652381321     0.471284604     C.2   1  noname    0.752702
    3   O3         0.801853490     1.705614976     1.048547584     O.2   1  noname   -0.620270
    4   N4        -0.428965389     0.155270394    -0.008726246    N.am   1  noname    0.019512
    5   C5        -0.589009582    -1.109918612    -0.688082151     C.3   1  noname   -0.576743
    6   C6        -1.655720926     0.899771199     0.189854661     C.3   1  noname   -0.597232
    7   H7         1.934896727    -1.139406057     0.725415331       H   1  noname    0.194605
    8   H8         2.210211743    -0.309811391    -0.798468546       H   1  noname    0.191996
    9   H9         2.820165815     0.384704754     0.702317790       H   1  noname    0.211450
   10   H10        0.355660714    -1.604441400    -0.842951749       H   1  noname    0.188682
   11   H11       -1.051836868    -0.958115172    -1.659134949       H   1  noname    0.188943
   12   H12       -1.228619487    -1.774528804    -0.112870134       H   1  noname    0.185890
   13   H13       -1.437963848     1.819261028     0.704740549       H   1  noname    0.215380
   14   H14       -2.360043621     0.318315495     0.778881800       H   1  noname    0.188129
   15   H15       -2.118020670     1.124805266    -0.767403715       H   1  noname    0.186524


@<TRIPOS>BOND
    1      1      2    1
    2      2      3    2
    3      2      4    am
    4      4      5    1
    5      4      6    1
    6      1      7    1
    7      1      8    1
    8      1      9    1
    9      5     10    1
   10      5     11    1
   11      5     12    1
   12      6     13    1
   13      6     14    1
   14      6     15    1
#
#	File Created by: Spartan'20 Export
#

@<TRIPOS>MOLECULE
M0090
22 22
SMALL
USER_CHARGES


@<TRIPOS>ATOM
    1   C1        -3.172974723     0.735069185    -0.122187983     C.3   1  noname   -0.727744
    2   C2        -1.676223480     0.967266005    -0.052349580     C.2   1  noname    0.866935
    3   O3        -1.236872312     2.075423188     0.064785569     O.2   1  noname   -0.634450
    4   N4        -0.870785821    -0.138215136    -0.142884094    N.am   1  noname   -0.341937
    5   C5        -1.406135857    -1.490808039    -0.214817525     C.3   1  noname   -0.473799
    6   C6         0.542401297     0.006336844     0.003192496     C.2   1  noname    0.388507
    7   C7         1.204659986    -0.680931990     1.008719043     C.2   1  noname   -0.317820
    8   C8         2.583044366    -0.590312093     1.127143585     C.2   1  noname   -0.077731
    9   C9         3.305322009     0.198556240     0.249545287     C.2   1  noname   -0.199321
   10   C10        2.640968510     0.894296184    -0.749702800     C.2   1  noname   -0.065929
   11   C11        1.267719949     0.795684759    -0.879151429     C.2   1  noname   -0.289864
   12   H12       -3.462718321     0.356761603    -1.096934660       H   1  noname    0.195003
   13   H13       -3.509596360     0.025426320     0.625157920       H   1  noname    0.197376
   14   H14       -3.656356728     1.685993638     0.042878038       H   1  noname    0.203945
   15   H15       -2.213470625    -1.550945762    -0.930847969       H   1  noname    0.176254
   16   H16       -0.621059511    -2.151128878    -0.549158038       H   1  noname    0.185900
   17   H17       -1.769398447    -1.850285735     0.743768169       H   1  noname    0.162470
   18   H18        0.645258048    -1.282765709     1.702556423       H   1  noname    0.176916
   19   H19        3.085719959    -1.130072350     1.909934669       H   1  noname    0.130197
   20   H20        4.373666753     0.274209131     0.342870579       H   1  noname    0.143765
   21   H21        3.193956609     1.512350863    -1.434238562       H   1  noname    0.129790
   22   H22        0.752874699     1.338091732    -1.648279135       H   1  noname    0.171538


@<TRIPOS>BOND
    1      1      2    1
    2      2      3    2
    3      2      4    am
    4      4      5    1
    5      4      6    1
    6      6      7    2
    7      7      8    1
    8      8      9    2
    9      9     10    1
   10     10     11    2
   11     11      6    1
   12      1     12    1
   13      1     13    1
   14      1     14    1
   15      5     15    1
   16      5     16    1
   17      5     17    1
   18      7     18    1
   19      8     19    1
   20      9     20    1
   21     10     21    1
   22     11     22    1
#
#	File Created by: Spartan'20 Export
#

@<TRIPOS>MOLECULE
M0091
41 42
SMALL
USER_CHARGES


@<TRIPOS>ATOM
    1   C1         1.035035384    -3.261782467     0.404415147     C.3   1  noname   -0.757543
    2   C2        -0.169271814    -2.333310943     0.362909547     C.2   1  noname    0.949263
    3   O3        -1.265985422    -2.802889058     0.534327609     O.2   1  noname   -0.660366
    4   N4         0.019790230    -1.005578240     0.131951136    N.am   1  noname   -0.940349
    5   C5        -1.154698757    -0.115282465     0.103478037     C.3   1  noname    0.724916
    6   C6        -1.923675210    -0.049289910     1.428685942     C.3   1  noname   -0.345635
    7   C7        -2.913551182     1.131909837     1.410898486     C.3   1  noname   -0.180057
    8   C8        -3.538284057     1.363128806     0.016654129     C.3   1  noname   -0.195559
    9   C9        -3.534081376     0.076596756    -0.810458359     C.3   1  noname   -0.142017
   10   C10       -2.098844509    -0.403320590    -1.087146074     C.3   1  noname   -0.331148
   11   C11        1.343273599    -0.411514577    -0.075132981     C.3   1  noname    0.703236
   12   C12        1.490442297     0.238621326    -1.458911705     C.3   1  noname   -0.324095
   13   C13        2.907821770     0.784609040    -1.664507627     C.3   1  noname   -0.169430
   14   C14        3.301332802     1.759192688    -0.551376205     C.3   1  noname   -0.156885
   15   C15        3.154639529     1.110084877     0.827170545     C.3   1  noname   -0.202847
   16   C16        1.739551762     0.562547882     1.044666733     C.3   1  noname   -0.296938
   17   H17        1.568448200    -3.274333459    -0.540006738       H   1  noname    0.187806
   18   H18        0.656977218    -4.252903662     0.606243293       H   1  noname    0.210236
   19   H19        1.735067153    -2.984817864     1.185126239       H   1  noname    0.184757
   20   H20       -0.746357610     0.873881906    -0.048363795       H   1  noname   -0.024275
   21   H21       -1.224650733     0.066819905     2.251216554       H   1  noname    0.072374
   22   H22       -2.446711041    -0.979539438     1.590568723       H   1  noname    0.151956
   23   H23       -2.413704349     2.040312454     1.736933262       H   1  noname    0.064112
   24   H24       -3.697065623     0.939752588     2.137557105       H   1  noname    0.098810
   25   H25       -2.978231270     2.126768264    -0.520025266       H   1  noname    0.078921
   26   H26       -4.548316461     1.747945509     0.120277323       H   1  noname    0.080271
   27   H27       -4.078821951    -0.695534741    -0.274195779       H   1  noname    0.100307
   28   H28       -4.057754920     0.225964050    -1.750132625       H   1  noname    0.074137
   29   H29       -1.708113114     0.101148833    -1.967801695       H   1  noname    0.059830
   30   H30       -2.108918939    -1.461303574    -1.302147314       H   1  noname    0.124218
   31   H31        2.059603799    -1.217166315    -0.044076233       H   1  noname   -0.004490
   32   H32        0.779627717     1.052301099    -1.571467487       H   1  noname    0.100766
   33   H33        1.251299095    -0.494221729    -2.223880174       H   1  noname    0.079982
   34   H34        2.975525347     1.271401358    -2.633012556       H   1  noname    0.088334
   35   H35        3.616058022    -0.042472965    -1.684389939       H   1  noname    0.075519
   36   H36        4.321832665     2.101942940    -0.696954958       H   1  noname    0.074857
   37   H37        2.665516044     2.641594928    -0.603916212       H   1  noname    0.090593
   38   H38        3.875000840     0.298665442     0.919763027       H   1  noname    0.081398
   39   H39        3.394804788     1.825438928     1.608171444       H   1  noname    0.095046
   40   H40        1.040168690     1.393031297     1.085912017       H   1  noname    0.101011
   41   H41        1.675221385     0.051601286     2.000977421       H   1  noname    0.078977


@<TRIPOS>BOND
    1      1      2    1
    2      2      3    2
    3      2      4    am
    4      4      5    1
    5      5      6    1
    6      6      7    1
    7      7      8    1
    8      8      9    1
    9      9     10    1
   10      4     11    1
   11     11     12    1
   12     12     13    1
   13     13     14    1
   14     14     15    1
   15     15     16    1
   16     10      5    1
   17     16     11    1
   18      1     17    1
   19      1     18    1
   20      1     19    1
   21      5     20    1
   22      6     21    1
   23      6     22    1
   24      7     23    1
   25      7     24    1
   26      8     25    1
   27      8     26    1
   28      9     27    1
   29      9     28    1
   30     10     29    1
   31     10     30    1
   32     11     31    1
   33     12     32    1
   34     12     33    1
   35     13     34    1
   36     13     35    1
   37     14     36    1
   38     14     37    1
   39     15     38    1
   40     15     39    1
   41     16     40    1
   42     16     41    1
#
#	File Created by: Spartan'20 Export
#

@<TRIPOS>MOLECULE
M0092
29 30
SMALL
USER_CHARGES


@<TRIPOS>ATOM
    1   C1         0.942543638     2.777163111     1.055478058     C.3   1  noname   -0.820348
    2   C2        -0.337481060     2.042664160     0.709883565     C.2   1  noname    0.982591
    3   O3        -1.403260111     2.566640823     0.855462114     O.2   1  noname   -0.636546
    4   N4        -0.221379208     0.754001737     0.234637609    N.am   1  noname   -0.706118
    5   C5         1.041264376     0.119592828     0.009027808     C.2   1  noname    0.547917
    6   C6         1.834577478     0.480753916    -1.069886522     C.2   1  noname   -0.295505
    7   C7         3.052194739    -0.147661822    -1.282031270     C.2   1  noname   -0.121231
    8   C8         3.475311725    -1.150650644    -0.426738370     C.2   1  noname   -0.181115
    9   C9         2.676260112    -1.523343605     0.643893945     C.2   1  noname   -0.057590
   10   C10        1.465127160    -0.889909262     0.862941388     C.2   1  noname   -0.382390
   11   C11       -1.400416557    -0.018754041    -0.027658726     C.2   1  noname    0.468941
   12   C12       -2.333928604    -0.246458599     0.973546442     C.2   1  noname   -0.296788
   13   C13       -3.448820777    -1.023972954     0.715889610     C.2   1  noname   -0.083216
   14   C14       -3.636325417    -1.589508278    -0.535804789     C.2   1  noname   -0.193730
   15   C15       -2.702895672    -1.364822473    -1.532230327     C.2   1  noname   -0.069300
   16   C16       -1.590303121    -0.577950240    -1.281264922     C.2   1  noname   -0.333712
   17   H17        0.663128502     3.668406417     1.598353510       H   1  noname    0.218897
   18   H18        1.611051055     2.172945787     1.654890461       H   1  noname    0.208722
   19   H19        1.475710463     3.067197151     0.157650257       H   1  noname    0.209269
   20   H20        1.496102912     1.249253135    -1.741666659       H   1  noname    0.166208
   21   H21        3.662258681     0.142147362    -2.119001913       H   1  noname    0.147807
   22   H22        4.417122511    -1.641383627    -0.593966670       H   1  noname    0.147207
   23   H23        2.996804619    -2.304054587     1.310280119       H   1  noname    0.137280
   24   H24        0.840642968    -1.176362460     1.689789822       H   1  noname    0.186142
   25   H25       -2.195674249     0.199063906     1.939883346       H   1  noname    0.180254
   26   H26       -4.169784566    -1.190283656     1.496013446       H   1  noname    0.133997
   27   H27       -4.501890191    -2.196813320    -0.731412452       H   1  noname    0.142607
   28   H28       -2.839316016    -1.795136105    -2.508384254       H   1  noname    0.131747
   29   H29       -0.868625391    -0.402764661    -2.057574627       H   1  noname    0.168001


@<TRIPOS>BOND
    1      1      2    1
    2      2      3    2
    3      2      4    am
    4      4      5    1
    5      5      6    2
    6      6      7    1
    7      7      8    2
    8      8      9    1
    9      9     10    2
   10      4     11    1
   11     11     12    2
   12     12     13    1
   13     13     14    2
   14     14     15    1
   15     15     16    2
   16     10      5    1
   17     16     11    1
   18      1     17    1
   19      1     18    1
   20      1     19    1
   21      6     20    1
   22      7     21    1
   23      8     22    1
   24      9     23    1
   25     10     24    1
   26     12     25    1
   27     13     26    1
   28     14     27    1
   29     15     28    1
   30     16     29    1
#
#	File Created by: Spartan'20 Export
#

@<TRIPOS>MOLECULE
M0093
12 11
SMALL
USER_CHARGES


@<TRIPOS>ATOM
    1   C1         1.899393083     0.016409505    -0.033776367     C.3   1  noname   -0.918374
    2   C2         0.486438017    -0.432245318     0.277211078     C.2   1  noname    0.885200
    3   O3         0.280861087    -1.415780336     0.935724980     O.2   1  noname   -0.617569
    4   N4        -0.500703384     0.339116190    -0.232115487    N.am   1  noname   -0.534314
    5   C5        -1.904256542     0.064287277    -0.022029890     C.3   1  noname   -0.318847
    6   H6         2.425584255    -0.805935658    -0.501380685       H   1  noname    0.254820
    7   H7         2.402981069     0.237882779     0.900307347       H   1  noname    0.254283
    8   H8         1.952254726     0.885715167    -0.678032207       H   1  noname    0.209676
    9   H9        -0.254047998     1.150930365    -0.748096677       H   1  noname    0.346964
   10   H10       -2.436609341     0.064263602    -0.966129375       H   1  noname    0.133465
   11   H11       -2.357665045     0.802530763     0.631975400       H   1  noname    0.132226
   12   H12       -1.994229927    -0.907174337     0.436341883       H   1  noname    0.172468


@<TRIPOS>BOND
    1      1      2    1
    2      2      3    2
    3      2      4    am
    4      4      5    1
    5      1      6    1
    6      1      7    1
    7      1      8    1
    8      4      9    1
    9      5     10    1
   10      5     11    1
   11      5     12    1
#
#	File Created by: Spartan'20 Export
#

@<TRIPOS>MOLECULE
M0094
11 10
SMALL
USER_CHARGES


@<TRIPOS>ATOM
    1   C1         0.358717651     0.000000585     1.793444938     C.3   1  noname   -0.933867
    2   C2        -0.357436747    -0.000000820     0.470747537     C.2   1  noname    1.054761
    3   O3        -1.537238131     0.000011486     0.331016326     O.2   1  noname   -0.626852
    4   O4         0.497731800    -0.000008297    -0.543078410     O.3   1  noname   -0.416115
    5   C5        -0.054084586    -0.000002318    -1.847794150     C.3   1  noname   -0.277477
    6   H6         0.994585977     0.875013493     1.865330301       H   1  noname    0.245159
    7   H7         0.994667918    -0.874958617     1.865292688       H   1  noname    0.245156
    8   H8        -0.363557003    -0.000051135     2.596357505       H   1  noname    0.246152
    9   H9        -0.660422287    -0.881043270    -2.003874654       H   1  noname    0.147903
   10   H10       -0.660350866     0.881082801    -2.003891814       H   1  noname    0.147903
   11   H11        0.787386274    -0.000043908    -2.523550266       H   1  noname    0.167277


@<TRIPOS>BOND
    1      1      2    1
    2      2      3    2
    3      2      4    1
    4      4      5    1
    5      1      6    1
    6      1      7    1
    7      1      8    1
    8      5      9    1
    9      5     10    1
   10      5     11    1
#
#	File Created by: Spartan'20 Export
#

@<TRIPOS>MOLECULE
M0095
20 19
SMALL
USER_CHARGES


@<TRIPOS>ATOM
    1   C1         0.760969562     0.000004056     2.874828472     C.3   1  noname   -0.822726
    2   C2        -0.154676325     0.000048606     1.677669411     C.2   1  noname    1.030071
    3   O3        -1.342351284     0.000146079     1.747370254     O.2   1  noname   -0.642990
    4   O4         0.545009127    -0.000006307     0.554755884     O.3   1  noname   -0.648129
    5   C5        -0.056483793    -0.000000296    -0.763234667     C.3   1  noname    1.088598
    6   C6        -0.883616505     1.267351829    -0.968849898     C.3   1  noname   -0.794065
    7   C7         1.157326578     0.000008682    -1.687649066     C.3   1  noname   -0.746338
    8   C8        -0.883594841    -1.267369554    -0.968838825     C.3   1  noname   -0.794070
    9   H9         0.173111969    -0.000038231     3.780850428       H   1  noname    0.216217
   10   H10        1.400731411     0.874560367     2.846580008       H   1  noname    0.223067
   11   H11        1.400638638    -0.874664713     2.846536434       H   1  noname    0.223039
   12   H12       -1.209935941     1.322150764    -2.002670340       H   1  noname    0.178553
   13   H13       -0.281637981     2.145976127    -0.759573447       H   1  noname    0.179671
   14   H14       -1.755597265     1.281676949    -0.331382722       H   1  noname    0.208685
   15   H15        0.840809171    -0.000021201    -2.725151965       H   1  noname    0.171886
   16   H16        1.768216327    -0.878731138    -1.513813704       H   1  noname    0.180810
   17   H17        1.768174537     0.878782444    -1.513852097       H   1  noname    0.180810
   18   H18       -1.755543589    -1.281731859    -0.331325094       H   1  noname    0.208677
   19   H19       -0.281581086    -2.145980261    -0.759607481       H   1  noname    0.179672
   20   H20       -1.209968710    -1.322162341    -2.002641586       H   1  noname    0.178560


@<TRIPOS>BOND
    1      1      2    1
    2      2      3    2
    3      2      4    1
    4      4      5    1
    5      5      6    1
    6      5      7    1
    7      5      8    1
    8      1      9    1
    9      1     10    1
   10      1     11    1
   11      6     12    1
   12      6     13    1
   13      6     14    1
   14      7     15    1
   15      7     16    1
   16      7     17    1
   17      8     18    1
   18      8     19    1
   19      8     20    1
#
#	File Created by: Spartan'20 Export
#

@<TRIPOS>MOLECULE
M0096
18 18
SMALL
USER_CHARGES


@<TRIPOS>ATOM
    1   C1         0.841009648     0.000021560    -2.898860556     C.3   1  noname   -0.700810
    2   C2        -0.413804390    -0.000030595    -2.053887042     C.2   1  noname    0.710568
    3   O3        -1.494760957    -0.000083800    -2.560804998     O.2   1  noname   -0.528927
    4   C4        -0.286973208    -0.000016578    -0.552751079     C.2   1  noname   -0.070782
    5   C5         0.942875874    -0.000025827     0.093414059     C.2   1  noname   -0.123649
    6   C6         1.009745673    -0.000013996     1.475223793     C.2   1  noname   -0.231747
    7   C7        -0.163046770     0.000004833     2.217147192     C.2   1  noname    0.184607
    8   C8        -1.400507684     0.000014219     1.580874230     C.2   1  noname   -0.214022
    9   C9        -1.456425804     0.000005681     0.202875754     C.2   1  noname   -0.106001
   10   C10       -0.096605536     0.000011039     3.661048649     C.1   1  noname    0.233047
   11   N11       -0.042871321     0.000019184     4.796149836     N.1   1  noname   -0.400121
   12   H12        1.446386238    -0.877201391    -2.693353300       H   1  noname    0.185406
   13   H13        1.446332604     0.877269560    -2.693293858       H   1  noname    0.185399
   14   H14        0.553518527     0.000059346    -3.940451237       H   1  noname    0.209055
   15   H15        1.858123021    -0.000052593    -0.467430379       H   1  noname    0.149013
   16   H16        1.960530445    -0.000025861     1.974555455       H   1  noname    0.183438
   17   H17       -2.302182030     0.000029888     2.164286608       H   1  noname    0.180630
   18   H18       -2.401344330     0.000015331    -0.304743126       H   1  noname    0.154895


@<TRIPOS>BOND
    1      1      2    1
    2      2      3    2
    3      2      4    1
    4      4      5    2
    5      5      6    1
    6      6      7    2
    7      7      8    1
    8      8      9    2
    9      7     10    1
   10     10     11    3
   11      9      4    1
   12      1     12    1
   13      1     13    1
   14      1     14    1
   15      5     15    1
   16      6     16    1
   17      8     17    1
   18      9     18    1
#
#	File Created by: Spartan'20 Export
#

@<TRIPOS>MOLECULE
M0097
22 22
SMALL
USER_CHARGES


@<TRIPOS>ATOM
    1   C1        -1.043106472     0.000053321     3.743002701     C.3   1  noname   -0.678553
    2   C2         0.207940480    -0.000005173     2.891821144     C.2   1  noname    0.691993
    3   O3         1.289870520     0.000006192     3.397976632     O.2   1  noname   -0.530822
    4   C4         0.072813176    -0.000037063     1.393509134     C.2   1  noname   -0.048925
    5   C5        -1.161519157    -0.000036103     0.751405187     C.2   1  noname   -0.147832
    6   C6        -1.233285037    -0.000047165    -0.628902609     C.2   1  noname   -0.138496
    7   C7        -0.072734702    -0.000045662    -1.393443234     C.2   1  noname   -0.048939
    8   C8         1.161604800    -0.000048300    -0.751334653     C.2   1  noname   -0.147822
    9   C9         1.233368468    -0.000050020     0.628962271     C.2   1  noname   -0.138509
   10   C10       -0.207931084    -0.000023884    -2.891758818     C.2   1  noname    0.691997
   11   O11       -1.289888002    -0.000049375    -3.397849308     O.2   1  noname   -0.530822
   12   C12        1.043017899     0.000057708    -3.743091844     C.3   1  noname   -0.678553
   13   H13       -1.649466670     0.876872820     3.539756865       H   1  noname    0.180819
   14   H14       -1.649576551    -0.876688860     3.539714959       H   1  noname    0.180808
   15   H15       -0.751124843    -0.000007298     4.783223947       H   1  noname    0.201432
   16   H16       -2.073488158    -0.000022479     1.318239138       H   1  noname    0.141087
   17   H17       -2.183133682    -0.000045883    -1.127268499       H   1  noname    0.148496
   18   H18        2.073584500    -0.000045330    -1.318159588       H   1  noname    0.141082
   19   H19        2.183233617    -0.000051900     1.127302096       H   1  noname    0.148498
   20   H20        1.649513651    -0.876699166    -3.539925855       H   1  noname    0.180809
   21   H21        0.750893846     0.000038696    -4.783270084       H   1  noname    0.201435
   22   H22        1.649413399     0.876874924    -3.539909581       H   1  noname    0.180815


@<TRIPOS>BOND
    1      1      2    1
    2      2      3    2
    3      2      4    1
    4      4      5    2
    5      5      6    1
    6      6      7    2
    7      7      8    1
    8      8      9    2
    9      7     10    1
   10     10     11    2
   11     10     12    1
   12      9      4    1
   13      1     13    1
   14      1     14    1
   15      1     15    1
   16      5     16    1
   17      6     17    1
   18      8     18    1
   19      9     19    1
   20     12     20    1
   21     12     21    1
   22     12     22    1
#
#	File Created by: Spartan'20 Export
#

@<TRIPOS>MOLECULE
M0098
20 20
SMALL
USER_CHARGES


@<TRIPOS>ATOM
    1   C1        -3.321286550    -0.106430260    -0.723156120     C.3   1  noname   -0.672452
    2   C2        -2.431513892    -0.032207168     0.498373896     C.2   1  noname    0.698886
    3   O3        -2.901623527     0.001555970     1.595532370     O.2   1  noname   -0.530234
    4   C4        -0.938180885    -0.001635238     0.315377198     C.2   1  noname   -0.073221
    5   C5        -0.336629102    -0.033281918    -0.936048431     C.2   1  noname   -0.133842
    6   C6         1.042646315    -0.000475042    -1.053982836     C.2   1  noname   -0.194663
    7   C7         1.827721175     0.064044727     0.083656799     C.2   1  noname    0.061167
    8   C8         1.237973758     0.096286294     1.339240819     C.2   1  noname   -0.185951
    9   C9        -0.137642423     0.063790127     1.451633380     C.2   1  noname   -0.103421
   10   C10        3.327385349     0.051403100    -0.040424979     C.3   1  noname    0.543973
   11   F11        3.806213475    -1.183373083    -0.024523074       F   1  noname   -0.202604
   12   F12        3.732737334     0.606495270    -1.170930554       F   1  noname   -0.198601
   13   F13        3.908899664     0.703339156     0.952006935       F   1  noname   -0.197303
   14   H14       -3.161097029     0.749248922    -1.371592577       H   1  noname    0.179157
   15   H15       -4.351435307    -0.120145341    -0.397447790       H   1  noname    0.200656
   16   H16       -3.114496838    -1.002862557    -1.298886316       H   1  noname    0.180093
   17   H17       -0.929974662    -0.080836943    -1.829483105       H   1  noname    0.146521
   18   H18        1.498666072    -0.018990194    -2.025714021       H   1  noname    0.165743
   19   H19        1.848465312     0.152968772     2.220517993       H   1  noname    0.165633
   20   H20       -0.606828240     0.091105407     2.415850415       H   1  noname    0.150464


@<TRIPOS>BOND
    1      1      2    1
    2      2      3    2
    3      2      4    1
    4      4      5    2
    5      5      6    1
    6      6      7    2
    7      7      8    1
    8      8      9    2
    9      7     10    1
   10     10     11    1
   11     10     12    1
   12     10     13    1
   13      9      4    1
   14      1     14    1
   15      1     15    1
   16      1     16    1
   17      5     17    1
   18      6     18    1
   19      8     19    1
   20      9     20    1
#
#	File Created by: Spartan'20 Export
#

@<TRIPOS>MOLECULE
M0099
17 17
SMALL
USER_CHARGES


@<TRIPOS>ATOM
    1   C1         0.797495844     0.000004693    -2.645695838     C.3   1  noname   -0.688498
    2   C2        -0.445656824    -0.000016211    -1.781670248     C.2   1  noname    0.722642
    3   O3        -1.532790316    -0.000053819    -2.278588151     O.2   1  noname   -0.542193
    4   C4        -0.295540013    -0.000003995    -0.287707430     C.2   1  noname   -0.127717
    5   C5         0.941401856    -0.000005626     0.344389687     C.2   1  noname   -0.109711
    6   C6         1.032610072     0.000003421     1.726279087     C.2   1  noname   -0.222232
    7   C7        -0.128195490     0.000006836     2.475338637     C.2   1  noname    0.210730
    8   C8        -1.374041037     0.000006017     1.869353840     C.2   1  noname   -0.213009
    9   C9        -1.449618822     0.000004714     0.491104521     C.2   1  noname   -0.077887
   10   Cl10      -0.023507868     0.000008478     4.212538909      Cl   1  noname   -0.136190
   11   H11        1.406109153    -0.877158254    -2.449054465       H   1  noname    0.180834
   12   H12        0.494913169     0.000054677    -3.683197213       H   1  noname    0.202275
   13   H13        1.406108557     0.877157595    -2.448993098       H   1  noname    0.180826
   14   H14        1.850208455    -0.000024314    -0.227801875       H   1  noname    0.146446
   15   H15        1.989339096     0.000000440     2.212888929       H   1  noname    0.162637
   16   H16       -2.264274054     0.000007117     2.469150488       H   1  noname    0.161140
   17   H17       -2.404561781     0.000008231     0.001664220       H   1  noname    0.149908


@<TRIPOS>BOND
    1      1      2    1
    2      2      3    2
    3      2      4    1
    4      4      5    2
    5      5      6    1
    6      6      7    2
    7      7      8    1
    8      8      9    2
    9      7     10    1
   10      9      4    1
   11      1     11    1
   12      1     12    1
   13      1     13    1
   14      5     14    1
   15      6     15    1
   16      8     16    1
   17      9     17    1
#
#	File Created by: Spartan'20 Export
#

@<TRIPOS>MOLECULE
M0100
17 17
SMALL
USER_CHARGES


@<TRIPOS>ATOM
    1   C1         0.795627798    -0.000009981     2.621230279     C.3   1  noname   -0.700235
    2   C2        -0.446345101     0.000021498     1.754958954     C.2   1  noname    0.753707
    3   O3        -1.533039822     0.000071972     2.253289987     O.2   1  noname   -0.553285
    4   C4        -0.294254147     0.000008114     0.264425038     C.2   1  noname   -0.225449
    5   C5         0.944523018     0.000013133    -0.367449653     C.2   1  noname   -0.019854
    6   C6         1.039255557     0.000002704    -1.748847931     C.2   1  noname   -0.410611
    7   C7        -0.124540670    -0.000010009    -2.485348858     C.2   1  noname    0.532333
    8   C8        -1.373143813    -0.000013659    -1.895082607     C.2   1  noname   -0.392512
    9   C9        -1.448744331    -0.000004960    -0.517226993     C.2   1  noname    0.004925
   10   F10       -0.043574562    -0.000017017    -3.808757304       F   1  noname   -0.246860
   11   H11        1.404430348    -0.877125859     2.426340730       H   1  noname    0.182119
   12   H12        1.404421907     0.877126781     2.426418984       H   1  noname    0.182126
   13   H13        0.491077784    -0.000067120     3.657817054       H   1  noname    0.203672
   14   H14        1.851330346     0.000027011     0.207452529       H   1  noname    0.139651
   15   H15        1.987968234     0.000006987    -2.251069344       H   1  noname    0.204613
   16   H16       -2.252241413    -0.000022513    -2.511346162       H   1  noname    0.201170
   17   H17       -2.402751133    -0.000007081    -0.026804705       H   1  noname    0.144491


@<TRIPOS>BOND
    1      1      2    1
    2      2      3    2
    3      2      4    1
    4      4      5    2
    5      5      6    1
    6      6      7    2
    7      7      8    1
    8      8      9    2
    9      7     10    1
   10      9      4    1
   11      1     11    1
   12      1     12    1
   13      1     13    1
   14      5     14    1
   15      6     15    1
   16      8     16    1
   17      9     17    1
#
#	File Created by: Spartan'20 Export
#

@<TRIPOS>MOLECULE
M0101
19 19
SMALL
USER_CHARGES


@<TRIPOS>ATOM
    1   C1         3.090647444    -0.000006691    -0.838736464     C.3   1  noname   -0.670515
    2   C2         2.243587360     0.000018839     0.413778533     C.2   1  noname    0.701854
    3   O3         2.745783659     0.000064724     1.495823302     O.2   1  noname   -0.524443
    4   C4         0.740948719     0.000006921     0.284205798     C.2   1  noname   -0.053813
    5   C5         0.099161074     0.000055091    -0.948194779     C.2   1  noname   -0.146399
    6   C6        -1.283067626     0.000062795    -1.022498278     C.2   1  noname   -0.156891
    7   C7        -2.004956103    -0.000004979     0.153399081     C.2   1  noname   -0.001799
    8   C8        -1.395080976    -0.000068134     1.395553426     C.2   1  noname   -0.152822
    9   C9        -0.015984467    -0.000046556     1.452289739     C.2   1  noname   -0.111875
   10   N10       -3.464489170    -0.000010816     0.082756340       N   1  noname    0.846238
   11   O11       -4.066829634     0.000494261     1.111898914       O   1  noname   -0.471939
   12   O12       -3.965231276    -0.000519179    -1.000227470     O.2   1  noname   -0.475289
   13   H13        4.131382231    -0.000059975    -0.549069372       H   1  noname    0.201698
   14   H14        2.886523099     0.877227979    -1.444228316       H   1  noname    0.179453
   15   H15        2.886453063    -0.877228227    -1.444230066       H   1  noname    0.179450
   16   H16        0.662410244     0.000096258    -1.861475475       H   1  noname    0.153036
   17   H17       -1.789877900     0.000128943    -1.965705990       H   1  noname    0.174262
   18   H18       -1.989661905    -0.000133205     2.286200281       H   1  noname    0.173797
   19   H19        0.488282164    -0.000078048     2.398460797       H   1  noname    0.155997


@<TRIPOS>BOND
    1      1      2    1
    2      2      3    2
    3      2      4    1
    4      4      5    2
    5      5      6    1
    6      6      7    2
    7      7      8    1
    8      8      9    2
    9      7     10    1
   10     10     11    1
   11     10     12    2
   12      9      4    1
   13      1     13    1
   14      1     14    1
   15      1     15    1
   16      5     16    1
   17      6     17    1
   18      8     18    1
   19      9     19    1
#
#	File Created by: Spartan'20 Export
#

@<TRIPOS>MOLECULE
M0102
25 25
SMALL
USER_CHARGES


@<TRIPOS>ATOM
    1   C1         4.192389919    -0.518987970     0.294609863     C.3   1  noname   -0.680258
    2   C2         3.233562292     0.648076964     0.427525402     C.2   1  noname    0.732671
    3   O3         3.650021214     1.738263493     0.699152507     O.2   1  noname   -0.563939
    4   C4         1.779156294     0.413086228     0.215266961     C.2   1  noname   -0.223484
    5   C5         0.896648528     1.486308508     0.326787127     C.2   1  noname   -0.006991
    6   C6        -0.457966779     1.333915161     0.143584625     C.2   1  noname   -0.410588
    7   C7        -1.007633457     0.078159540    -0.171754937     C.2   1  noname    0.483174
    8   C8        -0.120187214    -1.004701103    -0.273046665     C.2   1  noname   -0.437132
    9   C9         1.235952461    -0.829931471    -0.086736243     C.2   1  noname   -0.024856
   10   N10       -2.359524201    -0.080611664    -0.382082045   N.pl3   1  noname   -0.140275
   11   C11       -2.913307838    -1.414878972    -0.475438933     C.3   1  noname   -0.435223
   12   C12       -3.261858737     1.009368130    -0.079211020     C.3   1  noname   -0.430319
   13   H13        4.136172055    -0.956807710    -0.697640300       H   1  noname    0.174482
   14   H14        5.196649505    -0.160726421     0.470122041       H   1  noname    0.194109
   15   H15        3.958099947    -1.297333640     1.013523413       H   1  noname    0.176363
   16   H16        1.294059386     2.454326960     0.565833635       H   1  noname    0.137670
   17   H17       -1.087699576     2.193984994     0.247304756       H   1  noname    0.182525
   18   H18       -0.480866764    -1.987300530    -0.500089781       H   1  noname    0.186242
   19   H19        1.869336175    -1.692972612    -0.179789401       H   1  noname    0.132102
   20   H20       -2.740463285    -2.002651320     0.424770570       H   1  noname    0.152808
   21   H21       -3.979480337    -1.345489413    -0.632871900       H   1  noname    0.183606
   22   H22       -2.496603241    -1.952630212    -1.319504779       H   1  noname    0.142084
   23   H23       -3.027962422     1.883009705    -0.675957466       H   1  noname    0.141676
   24   H24       -3.238329208     1.295530868     0.971263520       H   1  noname    0.150933
   25   H25       -4.270164718     0.710992487    -0.325620950       H   1  noname    0.182621


@<TRIPOS>BOND
    1      1      2    1
    2      2      3    2
    3      2      4    1
    4      4      5    2
    5      5      6    1
    6      6      7    2
    7      7      8    1
    8      8      9    2
    9      7     10    1
   10     10     11    1
   11     10     12    1
   12      9      4    1
   13      1     13    1
   14      1     14    1
   15      1     15    1
   16      5     16    1
   17      6     17    1
   18      8     18    1
   19      9     19    1
   20     11     20    1
   21     11     21    1
   22     11     22    1
   23     12     23    1
   24     12     24    1
   25     12     25    1
#
#	File Created by: Spartan'20 Export
#

@<TRIPOS>MOLECULE
M0103
21 21
SMALL
USER_CHARGES


@<TRIPOS>ATOM
    1   C1         0.825799221     0.000028628    -3.606559959     C.3   1  noname   -0.678227
    2   C2        -0.367523794    -0.000011583    -2.672411950     C.2   1  noname    0.760079
    3   O3        -1.480057174    -0.000038261    -3.115390748     O.2   1  noname   -0.565129
    4   C4        -0.130599986    -0.000018791    -1.197740746     C.2   1  noname   -0.271386
    5   C5         1.143513055    -0.000020136    -0.627448213     C.2   1  noname    0.039549
    6   C6         1.310929759    -0.000022246     0.738379242     C.2   1  noname   -0.504800
    7   C7         0.198574353    -0.000020047     1.577288274     C.2   1  noname    0.649395
    8   C8        -1.078346894    -0.000021175     1.028034352     C.2   1  noname   -0.441431
    9   C9        -1.227718382    -0.000018043    -0.347556135     C.2   1  noname    0.009882
   10   O10        0.459345777    -0.000021519     2.893689774     O.3   1  noname   -0.376056
   11   C11       -0.595019405     0.000024499     3.818016429     C.3   1  noname   -0.282689
   12   H12        1.444986138     0.876912470    -3.444520525       H   1  noname    0.174518
   13   H13        1.445010091    -0.876848893    -3.444578254       H   1  noname    0.174521
   14   H14        0.465548584     0.000062925    -4.625621472       H   1  noname    0.194500
   15   H15        2.019475163    -0.000029331    -1.249642581       H   1  noname    0.127754
   16   H16        2.289146318    -0.000026633     1.181694345       H   1  noname    0.206169
   17   H17       -1.951079947    -0.000025038     1.651534704       H   1  noname    0.186115
   18   H18       -2.211242189    -0.000016168    -0.777645584       H   1  noname    0.143156
   19   H19       -1.212327911     0.885743496     3.712613291       H   1  noname    0.138128
   20   H20       -1.212358990    -0.885678482     3.712663932       H   1  noname    0.138130
   21   H21       -0.136053786     0.000044325     4.795201824       H   1  noname    0.177821


@<TRIPOS>BOND
    1      1      2    1
    2      2      3    2
    3      2      4    1
    4      4      5    2
    5      5      6    1
    6      6      7    2
    7      7      8    1
    8      8      9    2
    9      7     10    1
   10     10     11    1
   11      9      4    1
   12      1     12    1
   13      1     13    1
   14      1     14    1
   15      5     15    1
   16      6     16    1
   17      8     17    1
   18      9     18    1
   19     11     19    1
   20     11     20    1
   21     11     21    1
#
#	File Created by: Spartan'20 Export
#

@<TRIPOS>MOLECULE
M0104
21 21
SMALL
USER_CHARGES


@<TRIPOS>ATOM
    1   C1         3.753488599     0.424569999    -0.246850892     C.3   1  noname   -0.701208
    2   C2         2.584764826    -0.291060182    -0.890742207     C.2   1  noname    0.721339
    3   O3         2.760070123    -1.018538613    -1.823736379     O.2   1  noname   -0.547844
    4   C4         1.209276070    -0.075527410    -0.340553550     C.2   1  noname   -0.105194
    5   C5         0.144795707    -0.744623161    -0.931345218     C.2   1  noname   -0.149752
    6   C6        -1.148241396    -0.585581921    -0.467442208     C.2   1  noname   -0.186681
    7   C7        -1.404389345     0.256718152     0.608861437     C.2   1  noname    0.248147
    8   C8        -0.342207298     0.931500478     1.206945904     C.2   1  noname   -0.317172
    9   C9         0.944609538     0.765244821     0.737353422     C.2   1  noname   -0.091260
   10   S10       -3.012338658     0.547229119     1.299014130     S.3   1  noname   -0.170715
   11   C11       -4.121302687    -0.451696054     0.282650075     C.3   1  noname   -0.429826
   12   H12        4.655891083     0.152155987    -0.774761196       H   1  noname    0.202237
   13   H13        3.622516239     1.501152573    -0.290852780       H   1  noname    0.181762
   14   H14        3.850167695     0.145110642     0.797364142       H   1  noname    0.182258
   15   H15        0.340856911    -1.394648717    -1.762336522       H   1  noname    0.157915
   16   H16       -1.941833039    -1.120980623    -0.950539865       H   1  noname    0.156680
   17   H17       -0.525274219     1.586428821     2.039543308       H   1  noname    0.192503
   18   H18        1.739299308     1.300976734     1.222108781       H   1  noname    0.140800
   19   H19       -5.113357715    -0.285600216     0.681287418       H   1  noname    0.209246
   20   H20       -4.106885909    -0.137296556    -0.752325089       H   1  noname    0.153816
   21   H21       -3.889905835    -1.505533876     0.356357288       H   1  noname    0.152949


@<TRIPOS>BOND
    1      1      2    1
    2      2      3    2
    3      2      4    1
    4      4      5    2
    5      5      6    1
    6      6      7    2
    7      7      8    1
    8      8      9    2
    9      7     10    1
   10     10     11    1
   11      9      4    1
   12      1     12    1
   13      1     13    1
   14      1     14    1
   15      5     15    1
   16      6     16    1
   17      8     17    1
   18      9     18    1
   19     11     19    1
   20     11     20    1
   21     11     21    1
#
#	File Created by: Spartan'20 Export
#

@<TRIPOS>MOLECULE
M0105
22 22
SMALL
USER_CHARGES


@<TRIPOS>ATOM
    1   C1        -1.899300055     0.000003258     2.879258979     C.3   1  noname   -0.696446
    2   C2        -0.389940560     0.000028686     2.773711613     C.2   1  noname    0.717478
    3   O3         0.291400103     0.000095443     3.755713178     O.2   1  noname   -0.543338
    4   C4         0.246074760    -0.000000057     1.413142909     C.2   1  noname   -0.120831
    5   C5         1.639416519    -0.000013994     1.334931455     C.2   1  noname   -0.052961
    6   C6         2.270376720    -0.000027797     0.108556284     C.2   1  noname   -0.193151
    7   C7         1.517557560    -0.000024553    -1.058042850     C.2   1  noname   -0.079475
    8   C8         0.131228539    -0.000014427    -1.001276638     C.2   1  noname   -0.143212
    9   C9        -0.494651922    -0.000001267     0.243758771     C.2   1  noname   -0.099452
   10   C10       -0.735353482    -0.000006032    -2.226313606     C.2   1  noname    0.730321
   11   O11       -1.926377148     0.000013455    -2.123435418     O.2   1  noname   -0.547680
   12   C12       -0.080977362     0.000010605    -3.591216952     C.3   1  noname   -0.680932
   13   H13       -2.321392815    -0.876118158     2.397780809       H   1  noname    0.188253
   14   H14       -2.321409800     0.876168755     2.397903006       H   1  noname    0.188267
   15   H15       -2.170392611    -0.000088642     3.925152182       H   1  noname    0.201711
   16   H16        2.207059119    -0.000010467     2.245414886       H   1  noname    0.142030
   17   H17        3.343680631    -0.000035440     0.053777668       H   1  noname    0.148171
   18   H18        2.025167363    -0.000026192    -2.004622444       H   1  noname    0.138035
   19   H19       -1.566439357     0.000013626     0.260958649       H   1  noname    0.145473
   20   H20        0.545182923    -0.876975666    -3.720592427       H   1  noname    0.179213
   21   H21        0.545073477     0.877070663    -3.720619320       H   1  noname    0.179221
   22   H22       -0.855982604    -0.000061801    -4.343940733       H   1  noname    0.199303


@<TRIPOS>BOND
    1      1      2    1
    2      2      3    2
    3      2      4    1
    4      4      5    2
    5      5      6    1
    6      6      7    2
    7      7      8    1
    8      8      9    2
    9      8     10    1
   10     10     11    2
   11     10     12    1
   12      9      4    1
   13      1     13    1
   14      1     14    1
   15      1     15    1
   16      5     16    1
   17      6     17    1
   18      7     18    1
   19      9     19    1
   20     12     20    1
   21     12     21    1
   22     12     22    1
#
#	File Created by: Spartan'20 Export
#

@<TRIPOS>MOLECULE
M0106
20 20
SMALL
USER_CHARGES


@<TRIPOS>ATOM
    1   C1         3.299191018    -0.410468713     0.149309906     C.3   1  noname   -0.718811
    2   C2         1.934375705    -1.064483320     0.135805861     C.2   1  noname    0.705849
    3   O3         1.826838652    -2.251585531     0.210315117     O.2   1  noname   -0.529650
    4   C4         0.710108719    -0.199674136     0.028590249     C.2   1  noname   -0.037040
    5   C5         0.772597956     1.181778369    -0.074000951     C.2   1  noname   -0.152516
    6   C6        -0.389717061     1.935408069    -0.173193378     C.2   1  noname   -0.142882
    7   C7        -1.617859438     1.308378453    -0.168514882     C.2   1  noname   -0.189007
    8   C8        -1.688404334    -0.078202338    -0.064875423     C.2   1  noname    0.051075
    9   C9        -0.535697571    -0.827054833     0.033258767     C.2   1  noname   -0.194895
   10   C10       -3.043112291    -0.728656800    -0.025715049     C.3   1  noname    0.575007
   11   F11       -3.664551161    -0.489554889     1.120332321       F   1  noname   -0.213236
   12   F12       -3.830629001    -0.263535750    -0.985314184       F   1  noname   -0.214536
   13   F13       -2.975931498    -2.039692725    -0.168264020       F   1  noname   -0.195659
   14   H14        4.048161216    -1.183902230     0.237410940       H   1  noname    0.213086
   15   H15        3.392116419     0.276546969     0.984228522       H   1  noname    0.189326
   16   H16        3.469256745     0.150651475    -0.763941751       H   1  noname    0.189155
   17   H17        1.720199870     1.686854023    -0.079758594       H   1  noname    0.154743
   18   H18       -0.331667378     3.004984601    -0.255315545       H   1  noname    0.155424
   19   H19       -2.519517507     1.887176760    -0.250240676       H   1  noname    0.181183
   20   H20       -0.575759061    -1.894967452     0.109882771       H   1  noname    0.173386


@<TRIPOS>BOND
    1      1      2    1
    2      2      3    2
    3      2      4    1
    4      4      5    2
    5      5      6    1
    6      6      7    2
    7      7      8    1
    8      8      9    2
    9      8     10    1
   10     10     11    1
   11     10     12    1
   12     10     13    1
   13      9      4    1
   14      1     14    1
   15      1     15    1
   16      1     16    1
   17      5     17    1
   18      6     18    1
   19      7     19    1
   20      9     20    1
#
#	File Created by: Spartan'20 Export
#

@<TRIPOS>MOLECULE
M0107
17 17
SMALL
USER_CHARGES


@<TRIPOS>ATOM
    1   C1        -0.568234334     0.000006662    -2.697550337     C.3   1  noname   -0.684715
    2   C2        -1.224836282    -0.000004433    -1.333732249     C.2   1  noname    0.724956
    3   O3        -2.414861672    -0.000014876    -1.229063741     O.2   1  noname   -0.537989
    4   C4        -0.355923613    -0.000009899    -0.106342896     C.2   1  noname   -0.087477
    5   C5         1.031290313    -0.000011351    -0.168364087     C.2   1  noname   -0.155172
    6   C6         1.781332868    -0.000004014     0.997500682     C.2   1  noname   -0.145176
    7   C7         1.155117627     0.000002936     2.230697496     C.2   1  noname   -0.147745
    8   C8        -0.229715404     0.000003544     2.285343236     C.2   1  noname    0.152099
    9   C9        -0.988367053    -0.000000669     1.134701737     C.2   1  noname   -0.165080
   10   Cl10      -1.021019845     0.000011886     3.838305797      Cl   1  noname   -0.135905
   11   H11       -1.342500097     0.000012526    -3.451276538       H   1  noname    0.199375
   12   H12        0.057855133     0.877223894    -2.825485052       H   1  noname    0.180443
   13   H13        0.057880717    -0.877197969    -2.825507215       H   1  noname    0.180444
   14   H14        1.538139076    -0.000020828    -1.114602410       H   1  noname    0.149724
   15   H15        2.854783638    -0.000007609     0.946644532       H   1  noname    0.149854
   16   H16        1.728271134     0.000007283     3.138355125       H   1  noname    0.156105
   17   H17       -2.059212208     0.000002919     1.180375918       H   1  noname    0.166258


@<TRIPOS>BOND
    1      1      2    1
    2      2      3    2
    3      2      4    1
    4      4      5    2
    5      5      6    1
    6      6      7    2
    7      7      8    1
    8      8      9    2
    9      8     10    1
   10      9      4    1
   11      1     11    1
   12      1     12    1
   13      1     13    1
   14      5     14    1
   15      6     15    1
   16      7     16    1
   17      9     17    1
#
#	File Created by: Spartan'20 Export
#

@<TRIPOS>MOLECULE
M0108
17 17
SMALL
USER_CHARGES


@<TRIPOS>ATOM
    1   C1         0.017266292    -0.000000971    -2.737645292     C.3   1  noname   -0.694813
    2   C2        -0.920911196    -0.000023030    -1.549960199     C.2   1  noname    0.722492
    3   O3        -2.105024968    -0.000089556    -1.708220890     O.2   1  noname   -0.536191
    4   C4        -0.341550056    -0.000004078    -0.161663570     C.2   1  noname   -0.008071
    5   C5         1.027178175    -0.000004124     0.078496963     C.2   1  noname   -0.240411
    6   C6         1.506373404     0.000014517     1.379610516     C.2   1  noname   -0.062545
    7   C7         0.628712022     0.000015594     2.448134506     C.2   1  noname   -0.326523
    8   C8        -0.727743892     0.000008307     2.188420915     C.2   1  noname    0.477409
    9   C9        -1.229353803     0.000004192     0.910362980     C.2   1  noname   -0.349869
   10   F10       -1.573103498     0.000003613     3.214671865       F   1  noname   -0.248424
   11   H11       -0.573720907     0.000133798    -3.642477817       H   1  noname    0.202249
   12   H12        0.656700057     0.876926366    -2.725496216       H   1  noname    0.183963
   13   H13        0.656595578    -0.876995642    -2.725629090       H   1  noname    0.183981
   14   H14        1.727071489    -0.000027616    -0.735526909       H   1  noname    0.156379
   15   H15        2.565732584     0.000016291     1.561163929       H   1  noname    0.143121
   16   H16        0.973964732     0.000018337     3.465266044       H   1  noname    0.193613
   17   H17       -2.288186013     0.000004002     0.740492266       H   1  noname    0.203639


@<TRIPOS>BOND
    1      1      2    1
    2      2      3    2
    3      2      4    1
    4      4      5    2
    5      5      6    1
    6      6      7    2
    7      7      8    1
    8      8      9    2
    9      8     10    1
   10      9      4    1
   11      1     11    1
   12      1     12    1
   13      1     13    1
   14      5     14    1
   15      6     15    1
   16      7     16    1
   17      9     17    1
#
#	File Created by: Spartan'20 Export
#

@<TRIPOS>MOLECULE
M0109
21 21
SMALL
USER_CHARGES


@<TRIPOS>ATOM
    1   C1        -0.144855769     0.000009595     3.396739795     C.3   1  noname   -0.710268
    2   C2        -0.786891352    -0.000042378     2.025405515     C.2   1  noname    0.758483
    3   O3        -1.977627363    -0.000133291     1.914656831     O.2   1  noname   -0.554463
    4   C4         0.093126449    -0.000014850     0.806797047     C.2   1  noname   -0.031891
    5   C5         1.473983744    -0.000027816     0.889508890     C.2   1  noname   -0.274795
    6   C6         2.228818891    -0.000001814    -0.278762822     C.2   1  noname   -0.015749
    7   C7         1.613077527     0.000014983    -1.508728664     C.2   1  noname   -0.398711
    8   C8         0.219750265     0.000018878    -1.594989638     C.2   1  noname    0.569548
    9   C9        -0.536017616     0.000011868    -0.440231993     C.2   1  noname   -0.385289
   10   O10       -0.287831688     0.000031481    -2.843322549     O.3   1  noname   -0.379279
   11   C11       -1.677259200     0.000005243    -3.025485550     C.3   1  noname   -0.257302
   12   H12        0.480438086    -0.876734745     3.530923873       H   1  noname    0.185806
   13   H13        0.480506712     0.876744711     3.530779500       H   1  noname    0.185781
   14   H14       -0.927033483     0.000147751     4.142634583       H   1  noname    0.200514
   15   H15        1.974087964    -0.000062560     1.839426144       H   1  noname    0.161625
   16   H16        3.302562390    -0.000010231    -0.222221916       H   1  noname    0.131766
   17   H17        2.183110218     0.000020439    -2.419531273       H   1  noname    0.194197
   18   H18       -1.606561168     0.000023568    -0.463156235       H   1  noname    0.184665
   19   H19       -2.132696570    -0.884980139    -2.593762556       H   1  noname    0.135152
   20   H20       -1.839956003     0.000014706    -4.092934175       H   1  noname    0.165059
   21   H21       -2.132732036     0.884964599    -2.593744810       H   1  noname    0.135151


@<TRIPOS>BOND
    1      1      2    1
    2      2      3    2
    3      2      4    1
    4      4      5    2
    5      5      6    1
    6      6      7    2
    7      7      8    1
    8      8      9    2
    9      8     10    1
   10     10     11    1
   11      9      4    1
   12      1     12    1
   13      1     13    1
   14      1     14    1
   15      5     15    1
   16      6     16    1
   17      7     17    1
   18      9     18    1
   19     11     19    1
   20     11     20    1
   21     11     21    1
#
#	File Created by: Spartan'20 Export
#

@<TRIPOS>MOLECULE
M0110
17 17
SMALL
USER_CHARGES


@<TRIPOS>ATOM
    1   C1         0.816020977     0.000000956     2.600543888     C.3   1  noname   -0.677432
    2   C2        -0.433271333    -0.000047493     1.744157479     C.2   1  noname    0.700798
    3   O3        -1.515446793    -0.000152901     2.253050725     O.2   1  noname   -0.540472
    4   C4        -0.293322278    -0.000013368     0.249668500     C.2   1  noname   -0.098056
    5   C5         0.942588445    -0.000015195    -0.387070562     C.2   1  noname   -0.119841
    6   C6         1.019668592     0.000016590    -1.770469500     C.2   1  noname   -0.169616
    7   C7        -0.139883511     0.000027711    -2.526807384     C.2   1  noname   -0.078575
    8   C8        -1.378403104     0.000018185    -1.900441317     C.2   1  noname   -0.149304
    9   C9        -1.453734064     0.000004721    -0.521197383     C.2   1  noname   -0.098377
   10   H10        0.520273728     0.000226694     3.640071008       H   1  noname    0.198215
   11   H11        1.423402650    -0.876895375     2.399787641       H   1  noname    0.178221
   12   H12        1.423500317     0.876796060     2.399512821       H   1  noname    0.178189
   13   H13        1.852245045    -0.000047525     0.184379825       H   1  noname    0.133622
   14   H14        1.980257056     0.000019888    -2.253610482       H   1  noname    0.139507
   15   H15       -0.080424937     0.000037485    -3.600823156       H   1  noname    0.128415
   16   H16       -2.279120966     0.000020467    -2.487694529       H   1  noname    0.135086
   17   H17       -2.404349826     0.000003100    -0.023057572       H   1  noname    0.139619


@<TRIPOS>BOND
    1      1      2    1
    2      2      3    2
    3      2      4    1
    4      4      5    2
    5      5      6    1
    6      6      7    2
    7      7      8    1
    8      8      9    2
    9      9      4    1
   10      1     10    1
   11      1     11    1
   12      1     12    1
   13      5     13    1
   14      6     14    1
   15      7     15    1
   16      8     16    1
   17      9     17    1
#
#	File Created by: Spartan'20 Export
#

@<TRIPOS>MOLECULE
M0111
16 16
SMALL
USER_CHARGES


@<TRIPOS>ATOM
    1   C1         0.754004483    -0.000000865    -2.409967464     C.3   1  noname   -0.663693
    2   C2        -0.475636771     0.000001798    -1.530079632     C.2   1  noname    0.613888
    3   O3        -1.571686561     0.000010867    -2.001264205     O.2   1  noname   -0.503641
    4   C4        -0.300543639     0.000002506    -0.032319252     C.2   1  noname    0.297729
    5   C5         0.939998809     0.000000794     0.586718484     C.2   1  noname   -0.543017
    6   C6         0.990577478    -0.000001808     1.972173575     C.2   1  noname    0.469019
    7   N7        -0.080754072    -0.000006312     2.738784136     N.2   1  noname   -0.667155
    8   C8        -1.263275312    -0.000003917     2.146712787     C.2   1  noname    0.476941
    9   C9        -1.429871489     0.000001587     0.774974350     C.2   1  noname   -0.524237
   10   H10        0.439234898    -0.000012287    -3.443590023       H   1  noname    0.200631
   11   H11        1.364902513    -0.876729779    -2.219089441       H   1  noname    0.182750
   12   H12        1.364892658     0.876741851    -2.219104671       H   1  noname    0.182750
   13   H13        1.855439001    -0.000000116     0.026277679       H   1  noname    0.190967
   14   H14        1.940002214    -0.000001139     2.477988692       H   1  noname    0.043461
   15   H15       -2.119755160    -0.000006568     2.797217934       H   1  noname    0.043690
   16   H16       -2.407529050     0.000003389     0.334567050       H   1  noname    0.199918


@<TRIPOS>BOND
    1      1      2    1
    2      2      3    2
    3      2      4    1
    4      4      5    2
    5      5      6    1
    6      6      7    2
    7      7      8    1
    8      8      9    2
    9      9      4    1
   10      1     10    1
   11      1     11    1
   12      1     12    1
   13      5     13    1
   14      6     14    1
   15      8     15    1
   16      9     16    1
#
#	File Created by: Spartan'20 Export
#

@<TRIPOS>MOLECULE
M0112
14 14
SMALL
USER_CHARGES


@<TRIPOS>ATOM
    1   C1         0.623413301    -0.000279296    -2.015274801     C.3   1  noname   -0.609171
    2   C2        -0.609005220    -0.000218309    -1.147482050     C.2   1  noname    0.675304
    3   O3        -1.715131994    -0.000250548    -1.581793766     O.2   1  noname   -0.553712
    4   N4        -0.393286832     0.000131354     0.233268481    N.am   1  noname    0.058150
    5   C5         0.798541399     0.001076430     0.949993787     C.2   1  noname   -0.498344
    6   C6         0.441049015    -0.000798848     2.242090812     C.2   1  noname    0.224748
    7   N7        -0.934564972    -0.001297454     2.368977256     N.2   1  noname   -0.547134
    8   C8        -1.390398718     0.000592369     1.174363470     C.2   1  noname    0.204314
    9   H9         1.228522325     0.878712475    -1.822556595       H   1  noname    0.182305
   10   H10        0.307691379    -0.001210915    -3.047494267       H   1  noname    0.195865
   11   H11        1.229302260    -0.878533489    -1.821273935       H   1  noname    0.182212
   12   H12        1.755973462     0.002147801     0.479025041       H   1  noname    0.239998
   13   H13        1.077010541    -0.001647610     3.102224117       H   1  noname    0.112960
   14   H14       -2.419115945     0.001576040     0.885932451       H   1  noname    0.132507


@<TRIPOS>BOND
    1      1      2    1
    2      2      3    2
    3      2      4    am
    4      4      5    1
    5      5      6    2
    6      6      7    1
    7      7      8    2
    8      8      4    1
    9      1      9    1
   10      1     10    1
   11      1     11    1
   12      5     12    1
   13      6     13    1
   14      8     14    1
#
#	File Created by: Spartan'20 Export
#

@<TRIPOS>MOLECULE
M0113
15 14
SMALL
USER_CHARGES


@<TRIPOS>ATOM
    1   C1         1.903300004    -0.556022973     0.306273845     C.3   1  noname   -0.491837
    2   C2         0.727564066     0.312207606     0.706388449     C.2   1  noname    0.095046
    3   S3         0.895953011     1.374454956     1.983054840     S.2   1  noname   -0.380865
    4   N4        -0.399785102     0.187149773     0.013164547   N.pl3   1  noname    0.403481
    5   C5        -0.594966569    -0.724186510    -1.104548191     C.3   1  noname   -0.519430
    6   C6        -1.566021602     0.995798793     0.352635547     C.3   1  noname   -0.735590
    7   H7         2.202908964    -0.356508782    -0.717677114       H   1  noname    0.174428
    8   H8         2.733268353    -0.342551240     0.958186463       H   1  noname    0.148551
    9   H9         1.654743375    -1.609304379     0.389703356       H   1  noname    0.173271
   10   H10       -0.874349585    -0.164226405    -1.989806050       H   1  noname    0.163635
   11   H11       -1.391858571    -1.423123398    -0.875475082       H   1  noname    0.162474
   12   H12        0.295385722    -1.284669929    -1.325375528       H   1  noname    0.172473
   13   H13       -1.340309895     2.048978011     0.259361738       H   1  noname    0.195544
   14   H14       -1.878622415     0.804676733     1.369477341       H   1  noname    0.197484
   15   H15       -2.367209755     0.737327743    -0.325364161       H   1  noname    0.241335


@<TRIPOS>BOND
    1      1      2    1
    2      2      3    2
    3      2      4    1
    4      4      5    1
    5      4      6    1
    6      1      7    1
    7      1      8    1
    8      1      9    1
    9      5     10    1
   10      5     11    1
   11      5     12    1
   12      6     13    1
   13      6     14    1
   14      6     15    1
#
#	File Created by: Spartan'20 Export
#

@<TRIPOS>MOLECULE
M0114
12 11
SMALL
USER_CHARGES


@<TRIPOS>ATOM
    1   C1         1.492282360     0.000006684    -1.164977511     C.3   1  noname   -0.751274
    2   C2         0.056986641     0.000042800    -0.693188910     C.2   1  noname    0.410277
    3   S3        -1.203924281     0.000105887    -1.777715391     S.2   1  noname   -0.440613
    4   N4        -0.101757227     0.000036937     0.620329913   N.pl3   1  noname   -0.155685
    5   C5        -1.382602798     0.000010373     1.300987421     C.3   1  noname   -0.657516
    6   H6         2.203621298    -0.000015308    -0.344916710       H   1  noname    0.194571
    7   H7         1.663036399     0.873239111    -1.780822725       H   1  noname    0.226794
    8   H8         1.662981602    -0.873230786    -1.780828700       H   1  noname    0.226797
    9   H9         0.715075984    -0.000190896     1.188403084       H   1  noname    0.295986
   10   H10       -1.955382797     0.877417550     1.033125882       H   1  noname    0.212627
   11   H11       -1.955154512    -0.877596858     1.033355784       H   1  noname    0.212619
   12   H12       -1.195162667     0.000174507     2.366247862       H   1  noname    0.225418


@<TRIPOS>BOND
    1      1      2    1
    2      2      3    2
    3      2      4    1
    4      4      5    1
    5      1      6    1
    6      1      7    1
    7      1      8    1
    8      4      9    1
    9      5     10    1
   10      5     11    1
   11      5     12    1
#
#	File Created by: Spartan'20 Export
#

@<TRIPOS>MOLECULE
M0115
27 27
SMALL
USER_CHARGES


@<TRIPOS>ATOM
    1   C1         0.695043462     1.262237783    -2.500645653     C.3   1  noname   -0.762827
    2   C2        -0.097118722     0.000100439    -2.129227298     C.3   1  noname    1.293637
    3   C3        -1.432070522    -0.000625272    -2.880069318     C.3   1  noname   -0.940163
    4   C4         0.696321094    -1.261240244    -2.500653220     C.3   1  noname   -0.763062
    5   N5        -0.435897011     0.000313515    -0.698628950     N.2   1  noname   -0.694792
    6   C6         0.459291630    -0.000664639     0.173808927     C.2   1  noname    0.164649
    7   C7         0.162305394    -0.000315483     1.625819020     C.2   1  noname    0.162469
    8   C8        -1.148859067     0.000705009     2.098406635     C.2   1  noname   -0.159340
    9   C9        -1.397500543     0.001016004     3.456453322     C.2   1  noname   -0.124790
   10   C10       -0.342807214     0.000328142     4.361669289     C.2   1  noname   -0.152446
   11   C11        0.961063090    -0.000686140     3.901004571     C.2   1  noname   -0.081703
   12   C12        1.209869181    -0.001020946     2.536358198     C.2   1  noname   -0.279133
   13   H13        0.150034956     2.152826389    -2.206403330       H   1  noname    0.177477
   14   H14        1.665484658     1.286197428    -2.015740356       H   1  noname    0.151321
   15   H15        0.860812008     1.304044078    -3.572654942       H   1  noname    0.156483
   16   H16       -2.013269457    -0.877454438    -2.616003259       H   1  noname    0.207432
   17   H17       -2.014135417     0.875655447    -2.616112402       H   1  noname    0.207366
   18   H18       -1.277891876    -0.000631742    -3.955194421       H   1  noname    0.195224
   19   H19        0.861842252    -1.302950143    -3.572702729       H   1  noname    0.156483
   20   H20        1.666955099    -1.284206978    -2.016102952       H   1  noname    0.151538
   21   H21        0.152316111    -2.152386019    -2.206225270       H   1  noname    0.177446
   22   H22        1.518532664    -0.001803358    -0.068305657       H   1  noname    0.066797
   23   H23       -1.955155269     0.001235655     1.390027729       H   1  noname    0.140616
   24   H24       -2.411499235     0.001789655     3.814827355       H   1  noname    0.134078
   25   H25       -0.541091651     0.000579032     5.418756315       H   1  noname    0.136617
   26   H26        1.781137770    -0.001218986     4.596556947       H   1  noname    0.127989
   27   H27        2.226286615    -0.001824185     2.180981451       H   1  noname    0.150631


@<TRIPOS>BOND
    1      1      2    1
    2      2      3    1
    3      2      4    1
    4      2      5    1
    5      5      6    2
    6      6      7    1
    7      7      8    2
    8      8      9    1
    9      9     10    2
   10     10     11    1
   11     11     12    2
   12     12      7    1
   13      1     13    1
   14      1     14    1
   15      1     15    1
   16      3     16    1
   17      3     17    1
   18      3     18    1
   19      4     19    1
   20      4     20    1
   21      4     21    1
   22      6     22    1
   23      8     23    1
   24      9     24    1
   25     10     25    1
   26     11     26    1
   27     12     27    1
#
#	File Created by: Spartan'20 Export
#

@<TRIPOS>MOLECULE
M0116
14 13
SMALL
USER_CHARGES


@<TRIPOS>ATOM
    1   C1        -1.456214773     0.000000283    -0.127294771     C.3   1  noname   -0.745976
    2   C2         0.000002915    -0.000000060     0.322880892     C.3   1  noname    0.705468
    3   C3         0.728105759    -1.261127591    -0.127295489     C.3   1  noname   -0.738116
    4   C4         0.728105654     1.261127690    -0.127295272     C.3   1  noname   -0.738117
    5   Br5        0.000008475    -0.000001863     2.331086481      Br   1  noname   -0.256374
    6   H6        -1.979033385     0.878901358     0.228466496       H   1  noname    0.196026
    7   H7        -1.488191590     0.000002008    -1.214284538       H   1  noname    0.202965
    8   H8        -1.979033864    -0.878901628     0.228463815       H   1  noname    0.196026
    9   H9         1.750660364    -1.274463216     0.228477849       H   1  noname    0.192875
   10   H10        0.228352051    -2.153352831     0.228444956       H   1  noname    0.193293
   11   H11        0.744113079    -1.288814854    -1.214286466       H   1  noname    0.202881
   12   H12        0.228350849     2.153353330     0.228442713       H   1  noname    0.193293
   13   H13        0.744114726     1.288812992    -1.214286266       H   1  noname    0.202882
   14   H14        1.750659740     1.274464382     0.228479601       H   1  noname    0.192875


@<TRIPOS>BOND
    1      1      2    1
    2      2      3    1
    3      2      4    1
    4      2      5    1
    5      1      6    1
    6      1      7    1
    7      1      8    1
    8      3      9    1
    9      3     10    1
   10      3     11    1
   11      4     12    1
   12      4     13    1
   13      4     14    1
#
#	File Created by: Spartan'20 Export
#

@<TRIPOS>MOLECULE
M0117
15 14
SMALL
USER_CHARGES


@<TRIPOS>ATOM
    1   C1        -1.458573235    -0.000002302    -0.294312593     C.3   1  noname   -0.739324
    2   C2         0.000034464     0.000000204     0.192402847     C.3   1  noname    0.850530
    3   C3         0.729312506     1.263167648    -0.294404062     C.3   1  noname   -0.741593
    4   C4         0.729310260    -1.263166315    -0.294408141     C.3   1  noname   -0.741595
    5   C5         0.000002555     0.000001577     1.677103479     C.1   1  noname    0.137679
    6   N6        -0.000105799     0.000009324     2.812770687     N.1   1  noname   -0.423298
    7   H7        -1.987989071     0.878525158     0.056607632       H   1  noname    0.184133
    8   H8        -1.478603656    -0.000008918    -1.379313954       H   1  noname    0.183488
    9   H9        -1.987982486    -0.878529578     0.056617122       H   1  noname    0.184132
   10   H10        0.739357099     1.280353329    -1.379410644       H   1  noname    0.184575
   11   H11        0.233112589     2.160946887     0.056344492       H   1  noname    0.184055
   12   H12        1.754833880     1.282497074     0.056545031       H   1  noname    0.184293
   13   H13        0.739352106    -1.280345227    -1.379414912       H   1  noname    0.184575
   14   H14        0.233106388    -2.160945414     0.056334708       H   1  noname    0.184055
   15   H15        1.754832400    -1.282503447     0.056538308       H   1  noname    0.184294


@<TRIPOS>BOND
    1      1      2    1
    2      2      3    1
    3      2      4    1
    4      2      5    1
    5      5      6    3
    6      1      7    1
    7      1      8    1
    8      1      9    1
    9      3     10    1
   10      3     11    1
   11      3     12    1
   12      4     13    1
   13      4     14    1
   14      4     15    1
#
#	File Created by: Spartan'20 Export
#

@<TRIPOS>MOLECULE
M0118
24 23
SMALL
USER_CHARGES


@<TRIPOS>ATOM
    1   C1        -1.136426185     0.358122578     1.530219698     C.3   1  noname   -0.664126
    2   C2        -1.066210994     0.087179815     0.013206035     C.3   1  noname    0.862927
    3   C3        -1.296070360    -1.400921814    -0.314301517     C.3   1  noname   -0.951383
    4   C4        -2.206571101     0.884304157    -0.643676244     C.3   1  noname   -0.795421
    5   C5         0.261340053     0.603089881    -0.595635460     C.2   1  noname    0.467282
    6   O6         0.230877929     1.543504788    -1.345671372     O.2   1  noname   -0.571221
    7   N7         1.459479280    -0.021083581    -0.353624675    N.am   1  noname   -0.025646
    8   C8         2.619201480     0.567430083    -1.005111241     C.3   1  noname   -0.563319
    9   C9         1.795675703    -0.825695377     0.803713377     C.3   1  noname   -0.584431
   10   H10       -0.942542680     1.405774411     1.739904785       H   1  noname    0.151515
   11   H11       -0.445129400    -0.231893636     2.116357513       H   1  noname    0.152960
   12   H12       -2.136061277     0.132042033     1.887242311       H   1  noname    0.157836
   13   H13       -1.264550137    -1.562213967    -1.386711535       H   1  noname    0.213135
   14   H14       -2.279499987    -1.699024905     0.035175817       H   1  noname    0.230698
   15   H15       -0.575981485    -2.069575715     0.137248963       H   1  noname    0.213556
   16   H16       -2.115770503     1.943088115    -0.443464858       H   1  noname    0.183700
   17   H17       -3.157565010     0.538065990    -0.250055228       H   1  noname    0.181618
   18   H18       -2.211998039     0.754145969    -1.717855306       H   1  noname    0.191964
   19   H19        2.368156579     0.870592069    -2.007056296       H   1  noname    0.203191
   20   H20        2.986558939     1.437267604    -0.466099603       H   1  noname    0.190730
   21   H21        3.408160343    -0.173921318    -1.042709137       H   1  noname    0.189067
   22   H22        0.958775985    -1.393348510     1.162603351       H   1  noname    0.180148
   23   H23        2.176353775    -0.216554765     1.621287204       H   1  noname    0.187293
   24   H24        2.569797092    -1.530373903     0.525013420       H   1  noname    0.197928


@<TRIPOS>BOND
    1      1      2    1
    2      2      3    1
    3      2      4    1
    4      2      5    1
    5      5      6    2
    6      5      7    am
    7      7      8    1
    8      7      9    1
    9      1     10    1
   10      1     11    1
   11      1     12    1
   12      3     13    1
   13      3     14    1
   14      3     15    1
   15      4     16    1
   16      4     17    1
   17      4     18    1
   18      8     19    1
   19      8     20    1
   20      8     21    1
   21      9     22    1
   22      9     23    1
   23      9     24    1
#
#	File Created by: Spartan'20 Export
#

@<TRIPOS>MOLECULE
M0119
50 51
SMALL
USER_CHARGES


@<TRIPOS>ATOM
    1   C1        -0.501389828    -1.548965697     3.317851008     C.3   1  noname   -0.756864
    2   C2         0.269292026    -0.238954186     3.046843798     C.3   1  noname    0.971080
    3   C3        -0.612301621     1.002789511     3.288604076     C.3   1  noname   -0.788843
    4   C4         1.412539135    -0.174196430     4.080855815     C.3   1  noname   -0.754021
    5   C5         0.953113025    -0.274035529     1.641626474     C.2   1  noname    0.508856
    6   O6         2.120756529    -0.572365038     1.623566304     O.2   1  noname   -0.606364
    7   N7         0.316851420     0.066264081     0.461487569    N.am   1  noname   -0.956886
    8   C8        -1.149454876    -0.059640084     0.334182104     C.3   1  noname    0.618010
    9   C9        -1.941222918     1.255231236     0.046335408     C.3   1  noname   -0.364658
   10   C10       -2.628791056     1.434624819    -1.320619019     C.3   1  noname   -0.125023
   11   C11       -3.222661809     0.136643033    -1.866144928     C.3   1  noname   -0.271598
   12   C12       -2.161325763    -0.961683407    -1.915291899     C.3   1  noname   -0.142299
   13   C13       -1.642842046    -1.267362187    -0.508602805     C.3   1  noname   -0.313026
   14   C14        1.257049535     0.173975634    -0.676949667     C.3   1  noname    0.904950
   15   C15        0.875986112     1.232470831    -1.719639891     C.3   1  noname   -0.435812
   16   C16        1.715558721     1.077845861    -3.007880699     C.3   1  noname   -0.240005
   17   C17        3.080827168     0.444664948    -2.737197640     C.3   1  noname   -0.065291
   18   C18        2.925337808    -0.978672165    -2.160521566     C.3   1  noname   -0.378845
   19   C19        1.613640616    -1.150184746    -1.367379334     C.3   1  noname   -0.221123
   20   H20       -0.812165718    -1.574553326     4.357644576       H   1  noname    0.176796
   21   H21       -1.392463641    -1.670612327     2.713836353       H   1  noname    0.145608
   22   H22        0.139414285    -2.407237927     3.143202959       H   1  noname    0.167003
   23   H23       -1.567002487     0.978909966     2.784235636       H   1  noname    0.157709
   24   H24       -0.096828031     1.907834828     2.983825698       H   1  noname    0.164180
   25   H25       -0.820312788     1.087654330     4.350058799       H   1  noname    0.178600
   26   H26        2.016814376     0.714923985     3.945730841       H   1  noname    0.168444
   27   H27        0.986346830    -0.147249617     5.079202872       H   1  noname    0.156440
   28   H28        2.066534670    -1.029895935     4.006330110       H   1  noname    0.177286
   29   H29       -1.441811040    -0.317780072     1.326513817       H   1  noname   -0.007050
   30   H30       -1.302635763     2.105356969     0.255632796       H   1  noname    0.107680
   31   H31       -2.735494678     1.290193846     0.788504021       H   1  noname    0.102227
   32   H32       -1.945415030     1.841518774    -2.055206632       H   1  noname    0.060364
   33   H33       -3.411205885     2.179918924    -1.205776370       H   1  noname    0.086947
   34   H34       -3.638722774     0.309785239    -2.854274578       H   1  noname    0.100985
   35   H35       -4.047103030    -0.189354895    -1.234150779       H   1  noname    0.119560
   36   H36       -1.356064588    -0.660680252    -2.578260277       H   1  noname    0.078248
   37   H37       -2.580089800    -1.871480502    -2.336683279       H   1  noname    0.086020
   38   H38       -0.874762008    -2.029417962    -0.531339861       H   1  noname    0.080363
   39   H39       -2.477597623    -1.702456877     0.037913579       H   1  noname    0.089676
   40   H40        2.169151120     0.514813364    -0.219782219       H   1  noname   -0.005879
   41   H41       -0.163029133     1.163021032    -1.986858937       H   1  noname    0.203687
   42   H42        1.023239614     2.219071209    -1.287959789       H   1  noname    0.086542
   43   H43        1.830412797     2.044971767    -3.486806864       H   1  noname    0.094924
   44   H44        1.178390593     0.452006964    -3.716361574       H   1  noname    0.099380
   45   H45        3.633090166     1.070754822    -2.041640591       H   1  noname    0.063532
   46   H46        3.668631661     0.416035678    -3.649530017       H   1  noname    0.065911
   47   H47        2.952738504    -1.706587427    -2.965876116       H   1  noname    0.127710
   48   H48        3.768304702    -1.199669135    -1.514448984       H   1  noname    0.117600
   49   H49        1.731143032    -1.932815505    -0.629437916       H   1  noname    0.092384
   50   H50        0.817529493    -1.455430425    -2.039362384       H   1  noname    0.074888


@<TRIPOS>BOND
    1      1      2    1
    2      2      3    1
    3      2      4    1
    4      2      5    1
    5      5      6    2
    6      5      7    am
    7      7      8    1
    8      8      9    1
    9      9     10    1
   10     10     11    1
   11     11     12    1
   12     12     13    1
   13      7     14    1
   14     14     15    1
   15     15     16    1
   16     16     17    1
   17     17     18    1
   18     18     19    1
   19     13      8    1
   20     19     14    1
   21      1     20    1
   22      1     21    1
   23      1     22    1
   24      3     23    1
   25      3     24    1
   26      3     25    1
   27      4     26    1
   28      4     27    1
   29      4     28    1
   30      8     29    1
   31      9     30    1
   32      9     31    1
   33     10     32    1
   34     10     33    1
   35     11     34    1
   36     11     35    1
   37     12     36    1
   38     12     37    1
   39     13     38    1
   40     13     39    1
   41     14     40    1
   42     15     41    1
   43     15     42    1
   44     16     43    1
   45     16     44    1
   46     17     45    1
   47     17     46    1
   48     18     47    1
   49     18     48    1
   50     19     49    1
   51     19     50    1
#
#	File Created by: Spartan'20 Export
#

@<TRIPOS>MOLECULE
M0120
16 15
SMALL
USER_CHARGES


@<TRIPOS>ATOM
    1   C1        -1.127407444     0.000005043     0.921875682     C.3   1  noname   -0.845096
    2   C2        -0.008230903     0.000002965    -0.131778771     C.3   1  noname    1.138284
    3   C3         0.856477277     1.253213897     0.027800341     C.3   1  noname   -0.732446
    4   C4         0.856482642    -1.253208670     0.027813472     C.3   1  noname   -0.732446
    5   N5        -0.534191627    -0.000006489    -1.498107171     N.3   1  noname   -1.116585
    6   H6        -0.727550878    -0.000042762     1.931876396       H   1  noname    0.191054
    7   H7        -1.758783042    -0.878499500     0.814453635       H   1  noname    0.173675
    8   H8        -1.758744703     0.878543191     0.814511348       H   1  noname    0.173678
    9   H9         1.646219979     1.262968996    -0.714919963       H   1  noname    0.176531
   10   H10        0.261985719     2.154245848    -0.103060830       H   1  noname    0.165078
   11   H11        1.306131267     1.295243614     1.015171888       H   1  noname    0.158586
   12   H12        1.306138077    -1.295234053     1.015186852       H   1  noname    0.158586
   13   H13        1.646205714    -1.262966861    -0.714922546       H   1  noname    0.176533
   14   H14        0.261992642    -2.154242568    -0.103041052       H   1  noname    0.165078
   15   H15       -1.113359464    -0.804720668    -1.651439088       H   1  noname    0.374744
   16   H16       -1.113365256     0.804698017    -1.651420195       H   1  noname    0.374745


@<TRIPOS>BOND
    1      1      2    1
    2      2      3    1
    3      2      4    1
    4      2      5    1
    5      1      6    1
    6      1      7    1
    7      1      8    1
    8      3      9    1
    9      3     10    1
   10      3     11    1
   11      4     12    1
   12      4     13    1
   13      4     14    1
   14      5     15    1
   15      5     16    1
#
#	File Created by: Spartan'20 Export
#

@<TRIPOS>MOLECULE
M0121
19 18
SMALL
USER_CHARGES


@<TRIPOS>ATOM
    1   C1        -0.743558635    -0.036915851     1.386546398     C.3   1  noname   -0.727152
    2   C2        -0.363167981     0.062054806    -0.094992453     C.3   1  noname    1.124167
    3   C3        -0.306514758    -1.346633093    -0.712700496     C.3   1  noname   -0.663495
    4   C4        -1.424280918     0.891325506    -0.827711012     C.3   1  noname   -0.934635
    5   N5         0.895679776     0.801312602    -0.228782655     N.3   1  noname   -0.838498
    6   C6         2.090230804     0.256836992     0.386524616     C.3   1  noname   -0.213737
    7   H7        -1.739309956    -0.456534830     1.492558162       H   1  noname    0.152589
    8   H8        -0.734671744     0.946469404     1.844724278       H   1  noname    0.183844
    9   H9        -0.063185241    -0.676260026     1.939662924       H   1  noname    0.168464
   10   H10       -0.029467634    -1.296239320    -1.763276242       H   1  noname    0.138403
   11   H11        0.415033862    -1.980114695    -0.206664994       H   1  noname    0.153044
   12   H12       -1.273431528    -1.838433638    -0.648019599       H   1  noname    0.137781
   13   H13       -1.485371437     1.886271310    -0.401405150       H   1  noname    0.210972
   14   H14       -1.178586616     0.992737514    -1.882350612       H   1  noname    0.194562
   15   H15       -2.401783309     0.423500358    -0.761793862       H   1  noname    0.218098
   16   H16        1.073333823     0.963885001    -1.201063636       H   1  noname    0.369067
   17   H17        2.348046315    -0.756400690     0.076130744       H   1  noname    0.075184
   18   H18        1.994575008     0.262365678     1.465256083       H   1  noname    0.122433
   19   H19        2.926430169     0.900772971     0.137357506       H   1  noname    0.128910


@<TRIPOS>BOND
    1      1      2    1
    2      2      3    1
    3      2      4    1
    4      2      5    1
    5      5      6    1
    6      1      7    1
    7      1      8    1
    8      1      9    1
    9      3     10    1
   10      3     11    1
   11      3     12    1
   12      4     13    1
   13      4     14    1
   14      4     15    1
   15      5     16    1
   16      6     17    1
   17      6     18    1
   18      6     19    1
#
#	File Created by: Spartan'20 Export
#

@<TRIPOS>MOLECULE
M0122
18 17
SMALL
USER_CHARGES


@<TRIPOS>ATOM
    1   C1        -1.171089540     0.000482255    -1.435893169     C.3   1  noname   -0.904795
    2   C2        -0.130576879    -0.001443004    -0.318132225     C.3   1  noname    1.125943
    3   C3         0.735573379     1.259061773    -0.408238846     C.3   1  noname   -0.744717
    4   C4         0.734121353    -1.262762766    -0.411387821     C.3   1  noname   -0.742534
    5   O5        -0.909767076    -0.003168115     0.864711329     O.3   1  noname   -0.490766
    6   C6        -0.277803585     0.003075002     2.106850914     C.3   1  noname   -0.270468
    7   H7        -0.696408890     0.000747072    -2.411787267       H   1  noname    0.205631
    8   H8        -1.802011853     0.878651440    -1.357053537       H   1  noname    0.209150
    9   H9        -1.803735373    -0.876557077    -1.358425575       H   1  noname    0.209149
   10   H10        1.207743057     1.321669725    -1.383228070       H   1  noname    0.164106
   11   H11        1.525378729     1.266901305     0.335225992       H   1  noname    0.166151
   12   H12        0.125360168     2.144896393    -0.267232216       H   1  noname    0.177382
   13   H13        0.122257917    -2.148127741    -0.274316116       H   1  noname    0.176725
   14   H14        1.207806503    -1.322733027    -1.385869494       H   1  noname    0.163503
   15   H15        1.522721096    -1.274393816     0.333324326       H   1  noname    0.165999
   16   H16        0.346788444    -0.872031661     2.259440134       H   1  noname    0.114470
   17   H17        0.326198817     0.892316885     2.260541883       H   1  noname    0.114633
   18   H18       -1.062556267    -0.006584643     2.851469760       H   1  noname    0.160439


@<TRIPOS>BOND
    1      1      2    1
    2      2      3    1
    3      2      4    1
    4      2      5    1
    5      5      6    1
    6      1      7    1
    7      1      8    1
    8      1      9    1
    9      3     10    1
   10      3     11    1
   11      3     12    1
   12      4     13    1
   13      4     14    1
   14      4     15    1
   15      6     16    1
   16      6     17    1
   17      6     18    1
#
#	File Created by: Spartan'20 Export
#

@<TRIPOS>MOLECULE
M0123
27 26
SMALL
USER_CHARGES


@<TRIPOS>ATOM
    1   C1         1.458159647     0.998626327     1.008290072     C.3   1  noname   -0.803876
    2   C2         1.286364250    -0.007641230    -0.133269546     C.3   1  noname    1.229930
    3   C3         2.198634362     0.397459984    -1.294379018     C.3   1  noname   -0.755223
    4   C4         1.671595439    -1.417653503     0.332072031     C.3   1  noname   -0.828431
    5   O5         0.000009110     0.000093965    -0.734310738     O.3   1  noname   -0.828887
    6   C6        -1.286352415     0.007676385    -0.133281994     C.3   1  noname    1.229943
    7   C7        -2.198574099    -0.397490148    -1.294415042     C.3   1  noname   -0.755228
    8   C8        -1.671711316     1.417649711     0.332084965     C.3   1  noname   -0.828480
    9   C9        -1.458098300    -0.998611601     1.008263360     C.3   1  noname   -0.803875
   10   H10        2.495601120     1.004763035     1.327061459       H   1  noname    0.171830
   11   H11        0.856729407     0.751330198     1.874537846       H   1  noname    0.166819
   12   H12        1.202211405     2.000731083     0.684869416       H   1  noname    0.181331
   13   H13        1.930682081     1.384643712    -1.653368510       H   1  noname    0.170337
   14   H14        2.086941444    -0.300608902    -2.116095002       H   1  noname    0.182353
   15   H15        3.240185849     0.409411982    -0.989071836       H   1  noname    0.157472
   16   H16        2.732356251    -1.458987246     0.559735975       H   1  noname    0.173064
   17   H17        1.465144268    -2.135018930    -0.454527591       H   1  noname    0.182707
   18   H18        1.135984947    -1.722979448     1.221449959       H   1  noname    0.186129
   19   H19       -2.086944391     0.300609220    -2.116112336       H   1  noname    0.182354
   20   H20       -3.240124121    -0.409542267    -0.989114389       H   1  noname    0.157476
   21   H21       -1.930528374    -1.384635827    -1.653433402       H   1  noname    0.170335
   22   H22       -2.732442577     1.458790036     0.560021993       H   1  noname    0.173073
   23   H23       -1.465612092     2.135006217    -0.454680156       H   1  noname    0.182708
   24   H24       -1.135879460     1.723170273     1.221292087       H   1  noname    0.186153
   25   H25       -1.202093321    -2.000695008     0.684840993       H   1  noname    0.181329
   26   H26       -0.856698734    -0.751282614     1.874520944       H   1  noname    0.166824
   27   H27       -2.495540379    -1.004815406     1.327018461       H   1  noname    0.171831


@<TRIPOS>BOND
    1      1      2    1
    2      2      3    1
    3      2      4    1
    4      2      5    1
    5      5      6    1
    6      6      7    1
    7      6      8    1
    8      6      9    1
    9      1     10    1
   10      1     11    1
   11      1     12    1
   12      3     13    1
   13      3     14    1
   14      3     15    1
   15      4     16    1
   16      4     17    1
   17      4     18    1
   18      7     19    1
   19      7     20    1
   20      7     21    1
   21      8     22    1
   22      8     23    1
   23      8     24    1
   24      9     25    1
   25      9     26    1
   26      9     27    1
#
#	File Created by: Spartan'20 Export
#

@<TRIPOS>MOLECULE
M0124
28 27
SMALL
USER_CHARGES


@<TRIPOS>ATOM
    1   C1         2.095706797     1.040352526     1.170190323     C.3   1  noname   -0.727582
    2   C2         1.762964179     0.055411074     0.050327747     C.3   1  noname    1.117232
    3   C3         1.834106747     0.720343291    -1.323263307     C.3   1  noname   -0.792486
    4   C4         2.680296684    -1.164260074     0.111480992     C.3   1  noname   -0.820185
    5   O5         0.476276633    -0.511118039     0.262598230     O.3   1  noname   -0.412178
    6   O6        -0.476296652     0.511197596     0.262500645     O.3   1  noname   -0.412162
    7   C7        -1.762968481    -0.055386310     0.050256454     C.3   1  noname    1.117258
    8   C8        -1.834075246    -0.720346899    -1.323333894     C.3   1  noname   -0.792509
    9   C9        -2.095645753    -1.040348437     1.170112733     C.3   1  noname   -0.727575
   10   C10       -2.680372503     1.164225043     0.111420593     C.3   1  noname   -0.820193
   11   H11        1.991841845     0.558110068     2.136029527       H   1  noname    0.170740
   12   H12        1.437138090     1.898424136     1.145263150       H   1  noname    0.183816
   13   H13        3.118086456     1.390953366     1.069255126       H   1  noname    0.155887
   14   H14        2.844720267     1.064857737    -1.520624991       H   1  noname    0.173295
   15   H15        1.557629123     0.013054887    -2.098522029       H   1  noname    0.184608
   16   H16        1.167413789     1.570943060    -1.381431546       H   1  noname    0.190358
   17   H17        2.597312952    -1.655417875     1.074247877       H   1  noname    0.193313
   18   H18        3.712752606    -0.865679965    -0.034553970       H   1  noname    0.189556
   19   H19        2.417540406    -1.879067275    -0.660446751       H   1  noname    0.193623
   20   H20       -1.558217645    -0.012710508    -2.098700676       H   1  noname    0.184566
   21   H21       -2.844639408    -1.065419145    -1.520407865       H   1  noname    0.173300
   22   H22       -1.166817413    -1.570603753    -1.381770080       H   1  noname    0.190381
   23   H23       -3.117928548    -1.391175821     1.069046709       H   1  noname    0.155879
   24   H24       -1.992028307    -0.558066675     2.135955436       H   1  noname    0.170734
   25   H25       -1.436889137    -1.898271698     1.145288836       H   1  noname    0.183826
   26   H26       -3.712821077     0.865527935    -0.034420958       H   1  noname    0.189560
   27   H27       -2.597270329     1.655483678     1.074123031       H   1  noname    0.193316
   28   H28       -2.417816075     1.878988077    -0.660621343       H   1  noname    0.193623


@<TRIPOS>BOND
    1      1      2    1
    2      2      3    1
    3      2      4    1
    4      2      5    1
    5      5      6    1
    6      6      7    1
    7      7      8    1
    8      7      9    1
    9      7     10    1
   10      1     11    1
   11      1     12    1
   12      1     13    1
   13      3     14    1
   14      3     15    1
   15      3     16    1
   16      4     17    1
   17      4     18    1
   18      4     19    1
   19      8     20    1
   20      8     21    1
   21      8     22    1
   22      9     23    1
   23      9     24    1
   24      9     25    1
   25     10     26    1
   26     10     27    1
   27     10     28    1
#
#	File Created by: Spartan'20 Export
#

@<TRIPOS>MOLECULE
M0125
23 23
SMALL
USER_CHARGES


@<TRIPOS>ATOM
    1   C1         0.621949835     1.258069384    -1.607523299     C.3   1  noname   -0.731876
    2   C2        -0.097255422     0.000003058    -1.083536615     C.3   1  noname    0.736609
    3   C3         0.621875799    -1.258117745    -1.607497544     C.3   1  noname   -0.731862
    4   C4        -1.536360653     0.000041418    -1.615445132     C.3   1  noname   -0.734438
    5   C5        -0.076979346     0.000003265     0.450344504     C.2   1  noname    0.657798
    6   C6         1.131556902     0.000075784     1.152811784     C.2   1  noname   -0.629043
    7   C7         1.111580113     0.000068629     2.530440450     C.2   1  noname    0.221715
    8   C8        -0.110239114    -0.000014498     3.187169179     C.2   1  noname   -0.499588
    9   C9        -1.248439414    -0.000090788     2.410045491     C.2   1  noname    0.394861
   10   N10       -1.234397191    -0.000082577     1.086194072     N.2   1  noname   -0.729019
   11   H11        1.662735616     1.290730139    -1.303078652       H   1  noname    0.154597
   12   H12        0.596855230     1.278758378    -2.692935923       H   1  noname    0.181453
   13   H13        0.139909550     2.160180786    -1.244235603       H   1  noname    0.156829
   14   H14        0.596801797    -1.278815427    -2.692921522       H   1  noname    0.181448
   15   H15        0.139756121    -2.160197223    -1.244205603       H   1  noname    0.156831
   16   H16        1.662659399    -1.290844886    -1.303022892       H   1  noname    0.154590
   17   H17       -1.519366554     0.000062381    -2.701730044       H   1  noname    0.172038
   18   H18       -2.083031790     0.873418821    -1.282344759       H   1  noname    0.167600
   19   H19       -2.083072391    -0.873323420    -1.282379966       H   1  noname    0.167602
   20   H20        2.068543220     0.000137577     0.629318168       H   1  noname    0.202399
   21   H21        2.032613731     0.000125037     3.086390014       H   1  noname    0.098794
   22   H22       -0.175500511    -0.000025603     4.259416144       H   1  noname    0.186274
   23   H23       -2.222194928    -0.000162491     2.868727748       H   1  noname    0.064389


@<TRIPOS>BOND
    1      1      2    1
    2      2      3    1
    3      2      4    1
    4      2      5    1
    5      5      6    2
    6      6      7    1
    7      7      8    2
    8      8      9    1
    9      9     10    2
   10     10      5    1
   11      1     11    1
   12      1     12    1
   13      1     13    1
   14      3     14    1
   15      3     15    1
   16      3     16    1
   17      4     17    1
   18      4     18    1
   19      4     19    1
   20      6     20    1
   21      7     21    1
   22      8     22    1
   23      9     23    1
#
#	File Created by: Spartan'20 Export
#

@<TRIPOS>MOLECULE
M0126
23 23
SMALL
USER_CHARGES


@<TRIPOS>ATOM
    1   C1         0.728948776     1.258833406    -1.458806451     C.3   1  noname   -0.745706
    2   C2        -0.007625983     0.000004682    -0.961551669     C.3   1  noname    0.764500
    3   C3        -1.419295476     0.000039974    -1.566639143     C.3   1  noname   -0.710012
    4   C4         0.728883999    -1.258872266    -1.458784980     C.3   1  noname   -0.745684
    5   C5        -0.033927851     0.000011014     0.573407656     C.2   1  noname    0.532678
    6   C6         1.154138972     0.000051887     1.305040888     C.2   1  noname   -0.695068
    7   C7         1.112244625     0.000040636     2.684385361     C.2   1  noname    0.509827
    8   N8        -0.007232451    -0.000010341     3.389434738     N.2   1  noname   -0.725942
    9   C9        -1.132807580    -0.000051253     2.706530668     C.2   1  noname    0.569789
   10   C10       -1.203553689    -0.000041284     1.320779892     C.2   1  noname   -0.771553
   11   H11        0.746710195     1.278020927    -2.544313332       H   1  noname    0.183183
   12   H12        1.755462706     1.291393785    -1.112286898       H   1  noname    0.172133
   13   H13        0.233165940     2.160680093    -1.114605769       H   1  noname    0.157067
   14   H14       -1.983924442    -0.879667843    -1.275320332       H   1  noname    0.160763
   15   H15       -1.350357691     0.000062717    -2.649511127       H   1  noname    0.173631
   16   H16       -1.983888504     0.879756268    -1.275277557       H   1  noname    0.160762
   17   H17        1.755405378    -1.291459852    -1.112282874       H   1  noname    0.172126
   18   H18        0.233067272    -2.160688189    -1.114540536       H   1  noname    0.157063
   19   H19        0.746623465    -1.278099087    -2.544298260       H   1  noname    0.183177
   20   H20        2.110232863     0.000093884     0.816162057       H   1  noname    0.202200
   21   H21        2.028368675     0.000074856     3.249334895       H   1  noname    0.042017
   22   H22       -2.040467455    -0.000097595     3.285618467       H   1  noname    0.028741
   23   H23       -2.170171742    -0.000076418     0.857524306       H   1  noname    0.224306


@<TRIPOS>BOND
    1      1      2    1
    2      2      3    1
    3      2      4    1
    4      2      5    1
    5      5      6    2
    6      6      7    1
    7      7      8    2
    8      8      9    1
    9      9     10    2
   10     10      5    1
   11      1     11    1
   12      1     12    1
   13      1     13    1
   14      3     14    1
   15      3     15    1
   16      3     16    1
   17      4     17    1
   18      4     18    1
   19      4     19    1
   20      6     20    1
   21      7     21    1
   22      9     22    1
   23     10     23    1
#
#	File Created by: Spartan'20 Export
#

@<TRIPOS>MOLECULE
M0127
21 20
SMALL
USER_CHARGES


@<TRIPOS>ATOM
    1   C1        -1.874707264    -0.182127976    -0.949676037     C.3   1  noname   -0.754991
    2   C2        -1.114353824    -0.005554601     0.374960263     C.3   1  noname    0.445602
    3   C3        -1.930780217     0.819686514     1.370892976     C.3   1  noname   -0.788702
    4   C4         0.220375709     0.684796670     0.090811217     C.2   1  noname    0.499393
    5   O5         0.293815241     1.885363496     0.134822576     O.2   1  noname   -0.577264
    6   N6         1.289064333    -0.084085319    -0.264838163    N.am   1  noname    0.028943
    7   C7         1.328908210    -1.529096375    -0.167917232     C.3   1  noname   -0.644186
    8   C8         2.575296260     0.561455649    -0.451093143     C.3   1  noname   -0.519260
    9   H9        -2.061840090     0.784314768    -1.405104455       H   1  noname    0.210637
   10   H10       -1.321258110    -0.784886069    -1.662290574       H   1  noname    0.164686
   11   H11       -2.830480822    -0.664526122    -0.773460165       H   1  noname    0.196684
   12   H12       -0.943184905    -0.982275754     0.811205401       H   1  noname    0.009310
   13   H13       -2.873436009     0.321424293     1.577518370       H   1  noname    0.192309
   14   H14       -1.400571590     0.940214555     2.309584435       H   1  noname    0.183080
   15   H15       -2.135794126     1.806586744     0.978326241       H   1  noname    0.219491
   16   H16        2.109116861    -1.893864320    -0.823902720       H   1  noname    0.223382
   17   H17        0.402695524    -1.979748600    -0.489508468       H   1  noname    0.190645
   18   H18        1.552673686    -1.871687958     0.840864662       H   1  noname    0.182938
   19   H19        3.064296221     0.153882642    -1.328583799       H   1  noname    0.164317
   20   H20        3.222372357     0.400216896     0.407713358       H   1  noname    0.175427
   21   H21        2.427792555     1.619910866    -0.580324746       H   1  noname    0.197556


@<TRIPOS>BOND
    1      1      2    1
    2      2      3    1
    3      2      4    1
    4      4      5    2
    5      4      6    am
    6      6      7    1
    7      6      8    1
    8      1      9    1
    9      1     10    1
   10      1     11    1
   11      2     12    1
   12      3     13    1
   13      3     14    1
   14      3     15    1
   15      7     16    1
   16      7     17    1
   17      7     18    1
   18      8     19    1
   19      8     20    1
   20      8     21    1
#
#	File Created by: Spartan'20 Export
#

@<TRIPOS>MOLECULE
M0128
47 48
SMALL
USER_CHARGES


@<TRIPOS>ATOM
    1   C1        -0.888168507     3.901000649    -1.344722429     C.3   1  noname   -0.759660
    2   C2        -0.121003695     2.943672072    -0.427429233     C.3   1  noname    0.402858
    3   C3         0.220288376     3.623199536     0.907737903     C.3   1  noname   -0.667469
    4   C4        -0.984665934     1.706005909    -0.150866426     C.2   1  noname    0.781320
    5   O5        -2.165119328     1.880724300     0.031569787     O.2   1  noname   -0.654251
    6   N6        -0.432711539     0.454395285    -0.108230202    N.am   1  noname   -1.147904
    7   C7        -1.417051641    -0.639162484     0.073405546     C.3   1  noname    0.893361
    8   C8        -1.727146545    -0.918763029     1.562996036     C.3   1  noname   -0.347127
    9   C9        -2.344475046    -2.309930819     1.785387430     C.3   1  noname   -0.232425
   10   C10       -3.232948381    -2.706061109     0.608328717     C.3   1  noname   -0.118827
   11   C11       -2.408275126    -2.824740864    -0.689668706     C.3   1  noname   -0.253412
   12   C12       -1.143816522    -1.936211773    -0.697732837     C.3   1  noname   -0.374777
   13   C13        1.027597344     0.256781168    -0.143656451     C.3   1  noname    0.831865
   14   C14        1.596205909    -0.691313484     0.922641599     C.3   1  noname   -0.339486
   15   C15        3.133241556    -0.556347753     0.990236792     C.3   1  noname   -0.233511
   16   C16        3.786014644    -0.294995737    -0.383468658     C.3   1  noname   -0.150005
   17   C17        2.911158636    -0.829994866    -1.514957797     C.3   1  noname   -0.146682
   18   C18        1.559167907    -0.099545471    -1.554449342     C.3   1  noname   -0.437964
   19   H19       -1.817124103     4.212970160    -0.887986919       H   1  noname    0.212853
   20   H20       -0.282897354     4.779815779    -1.547207042       H   1  noname    0.186383
   21   H21       -1.123238152     3.430817986    -2.294197131       H   1  noname    0.168085
   22   H22        0.797299481     2.679272726    -0.932669756       H   1  noname   -0.015087
   23   H23        0.792300455     2.974334433     1.563842596       H   1  noname    0.135653
   24   H24        0.805288669     4.520286101     0.735243959       H   1  noname    0.174558
   25   H25       -0.688916000     3.903317680     1.426523306       H   1  noname    0.187087
   26   H26       -2.319876945    -0.239503947    -0.357140330       H   1  noname   -0.000524
   27   H27       -0.832847589    -0.824978994     2.163527522       H   1  noname    0.088282
   28   H28       -2.410166123    -0.148882903     1.904173632       H   1  noname    0.109917
   29   H29       -2.909317008    -2.317656409     2.713060425       H   1  noname    0.099237
   30   H30       -1.557826145    -3.052988894     1.901546182       H   1  noname    0.097394
   31   H31       -3.741751986    -3.643531436     0.809524759       H   1  noname    0.070662
   32   H32       -4.010468620    -1.956638489     0.487455464       H   1  noname    0.077016
   33   H33       -2.104572930    -3.856830017    -0.839121919       H   1  noname    0.114128
   34   H34       -3.034976833    -2.566395591    -1.538192390       H   1  noname    0.086325
   35   H35       -0.887272874    -1.717288788    -1.726213523       H   1  noname    0.107430
   36   H36       -0.312605914    -2.487863884    -0.275044080       H   1  noname    0.110218
   37   H37        1.453704527     1.210297118     0.119919963       H   1  noname   -0.012222
   38   H38        1.181237337    -0.446589253     1.891549517       H   1  noname    0.101083
   39   H39        1.330289768    -1.720165297     0.716750226       H   1  noname    0.114244
   40   H40        3.396271086     0.246677438     1.673843359       H   1  noname    0.080378
   41   H41        3.539107230    -1.466906159     1.422033733       H   1  noname    0.110570
   42   H42        3.933340390     0.772597158    -0.529652751       H   1  noname    0.075124
   43   H43        4.773506426    -0.743273704    -0.416528223       H   1  noname    0.076567
   44   H44        2.752075963    -1.895919597    -1.368770726       H   1  noname    0.089695
   45   H45        3.413025705    -0.725343148    -2.472140084       H   1  noname    0.085424
   46   H46        0.836883785    -0.700009661    -2.087785368       H   1  noname    0.121058
   47   H47        1.661235646     0.821668065    -2.123466130       H   1  noname    0.102560


@<TRIPOS>BOND
    1      1      2    1
    2      2      3    1
    3      2      4    1
    4      4      5    2
    5      4      6    am
    6      6      7    1
    7      7      8    1
    8      8      9    1
    9      9     10    1
   10     10     11    1
   11     11     12    1
   12      6     13    1
   13     13     14    1
   14     14     15    1
   15     15     16    1
   16     16     17    1
   17     17     18    1
   18     12      7    1
   19     18     13    1
   20      1     19    1
   21      1     20    1
   22      1     21    1
   23      2     22    1
   24      3     23    1
   25      3     24    1
   26      3     25    1
   27      7     26    1
   28      8     27    1
   29      8     28    1
   30      9     29    1
   31      9     30    1
   32     10     31    1
   33     10     32    1
   34     11     33    1
   35     11     34    1
   36     12     35    1
   37     12     36    1
   38     13     37    1
   39     14     38    1
   40     14     39    1
   41     15     40    1
   42     15     41    1
   43     16     42    1
   44     16     43    1
   45     17     44    1
   46     17     45    1
   47     18     46    1
   48     18     47    1
#
#	File Created by: Spartan'20 Export
#

@<TRIPOS>MOLECULE
M0129
28 29
SMALL
USER_CHARGES


@<TRIPOS>ATOM
    1   C1        -2.719693215     0.917301227    -0.750282510     C.3   1  noname   -0.705133
    2   C2        -1.997194710     0.192133653     0.391283135     C.3   1  noname    0.333739
    3   C3        -2.610265026    -1.197783430     0.605818450     C.3   1  noname   -0.666141
    4   C4        -0.469188345     0.129951414     0.211051507     C.3   1  noname    0.473725
    5   C5         0.037629937    -0.689953177    -0.987444250     C.3   1  noname   -0.157008
    6   C6         1.571265119    -0.509295352    -1.081518413     C.3   1  noname   -0.428749
    7   C7         2.018593626     0.410513195     0.060226050     C.3   1  noname    0.765250
    8   C8         1.569789205    -0.184466745     1.373859976     C.2   1  noname   -0.288571
    9   C9         0.264143001    -0.331668059     1.454104678     C.2   1  noname   -0.371406
   10   O10        1.319680219     1.645313076    -0.113948817     O.3   1  noname   -0.277453
   11   O11       -0.075477306     1.486696172    -0.025747306     O.3   1  noname   -0.303014
   12   C12        3.488248946     0.782968209     0.010213035     C.3   1  noname   -0.928899
   13   H13       -2.646672922     0.368789906    -1.684188199       H   1  noname    0.168978
   14   H14       -2.321232163     1.910115459    -0.908002188       H   1  noname    0.173212
   15   H15       -3.774886611     1.009486727    -0.511114959       H   1  noname    0.186308
   16   H16       -2.155624954     0.773265561     1.296526439       H   1  noname    0.024737
   17   H17       -2.564708596    -1.795996556    -0.298588779       H   1  noname    0.157736
   18   H18       -3.656315603    -1.099141138     0.877063861       H   1  noname    0.179458
   19   H19       -2.120334085    -1.754801066     1.397513056       H   1  noname    0.152621
   20   H20       -0.438351743    -0.333202954    -1.891841686       H   1  noname    0.092130
   21   H21       -0.224451343    -1.733427707    -0.863559443       H   1  noname    0.082990
   22   H22        1.845653284    -0.048221874    -2.023510612       H   1  noname    0.139321
   23   H23        2.088747849    -1.460017305    -1.014645140       H   1  noname    0.129539
   24   H24        2.266592122    -0.414664842     2.160271578       H   1  noname    0.177662
   25   H25       -0.256073849    -0.694886679     2.321494998       H   1  noname    0.183111
   26   H26        3.728007349     1.256097126    -0.934407222       H   1  noname    0.238440
   27   H27        4.100451515    -0.106542710     0.118178754       H   1  noname    0.225327
   28   H28        3.731668297     1.471437868     0.811194006       H   1  noname    0.242089


@<TRIPOS>BOND
    1      1      2    1
    2      2      3    1
    3      2      4    1
    4      4      5    1
    5      5      6    1
    6      6      7    1
    7      7      8    1
    8      8      9    2
    9      7     10    1
   10     10     11    1
   11      7     12    1
   12      9      4    1
   13     11      4    1
   14      1     13    1
   15      1     14    1
   16      1     15    1
   17      2     16    1
   18      3     17    1
   19      3     18    1
   20      3     19    1
   21      5     20    1
   22      5     21    1
   23      6     22    1
   24      6     23    1
   25      8     24    1
   26      9     25    1
   27     12     26    1
   28     12     27    1
   29     12     28    1
#
#	File Created by: Spartan'20 Export
#

@<TRIPOS>MOLECULE
M0130
34 33
SMALL
USER_CHARGES


@<TRIPOS>ATOM
    1   C1         2.993970285    -1.249434096    -0.801954476     C.3   1  noname   -0.905679
    2   C2         1.816078563    -0.946788366     0.131132269     C.3   1  noname    0.669022
    3   C3         2.297916819    -0.243704167     1.400114796     C.3   1  noname   -0.702356
    4   C4         0.743576079    -0.158559818    -0.645843788     C.3   1  noname   -0.091555
    5   N5        -0.474739938     0.175218999     0.098316913     N.3   1  noname   -0.835970
    6   C6        -0.814109499     1.609036490     0.042088942     C.3   1  noname    0.943483
    7   C7         0.248825377     2.461028041     0.745599933     C.3   1  noname   -0.895497
    8   C8        -2.161346653     1.935207832     0.698857923     C.3   1  noname   -0.852934
    9   C9        -1.600487864    -0.733983105    -0.162609563     C.3   1  noname    0.807215
   10   C10       -2.186691124    -0.660886539    -1.583976070     C.3   1  noname   -0.751461
   11   C11       -1.268666722    -2.183854677     0.196403352     C.3   1  noname   -0.797699
   12   H12        2.674974655    -1.796567161    -1.684706216       H   1  noname    0.182728
   13   H13        3.474512664    -0.333452628    -1.137133910       H   1  noname    0.204952
   14   H14        3.746636606    -1.848134335    -0.298430958       H   1  noname    0.217375
   15   H15        1.386623794    -1.894912941     0.433976419       H   1  noname   -0.018616
   16   H16        1.470083354    -0.022266866     2.060909172       H   1  noname    0.163667
   17   H17        2.999229659    -0.875416791     1.937795313       H   1  noname    0.151197
   18   H18        2.809160018     0.687286364     1.171221866       H   1  noname    0.173603
   19   H19        1.198643589     0.752214562    -1.016775786       H   1  noname    0.076135
   20   H20        0.499241547    -0.730596725    -1.536801262       H   1  noname    0.071757
   21   H21       -0.867940347     1.943234602    -0.997868690       H   1  noname   -0.075185
   22   H22       -0.005851878     3.512019402     0.650167681       H   1  noname    0.187935
   23   H23        0.291623004     2.215563125     1.801444911       H   1  noname    0.230056
   24   H24        1.240085566     2.334172555     0.332461879       H   1  noname    0.215481
   25   H25       -2.195544729     1.553193064     1.714425625       H   1  noname    0.204467
   26   H26       -3.012059224     1.543918752     0.156247269       H   1  noname    0.181990
   27   H27       -2.282004135     3.012119427     0.743962738       H   1  noname    0.196705
   28   H28       -2.383879762    -0.445536030     0.522193112       H   1  noname   -0.011694
   29   H29       -3.087137694    -1.265282143    -1.643428798       H   1  noname    0.163603
   30   H30       -2.454476855     0.352706575    -1.861799008       H   1  noname    0.156608
   31   H31       -1.496570058    -1.036494011    -2.332386293       H   1  noname    0.185198
   32   H32       -2.175152499    -2.780196513     0.157614020       H   1  noname    0.178629
   33   H33       -0.864412195    -2.248277248     1.199679966       H   1  noname    0.182561
   34   H34       -0.560110402    -2.632575630    -0.490899282       H   1  noname    0.194278


@<TRIPOS>BOND
    1      1      2    1
    2      2      3    1
    3      2      4    1
    4      4      5    1
    5      5      6    1
    6      6      7    1
    7      6      8    1
    8      5      9    1
    9      9     10    1
   10      9     11    1
   11      1     12    1
   12      1     13    1
   13      1     14    1
   14      2     15    1
   15      3     16    1
   16      3     17    1
   17      3     18    1
   18      4     19    1
   19      4     20    1
   20      6     21    1
   21      7     22    1
   22      7     23    1
   23      7     24    1
   24      8     25    1
   25      8     26    1
   26      8     27    1
   27      9     28    1
   28     10     29    1
   29     10     30    1
   30     10     31    1
   31     11     32    1
   32     11     33    1
   33     11     34    1
#
#	File Created by: Spartan'20 Export
#

@<TRIPOS>MOLECULE
M0131
11 10
SMALL
USER_CHARGES


@<TRIPOS>ATOM
    1   C1        -0.131852520     1.269497507    -0.244025923     C.3   1  noname   -0.650141
    2   C2         0.395590128    -0.000000376     0.405497566     C.3   1  noname    0.436959
    3   C3        -0.131853738    -1.269497282    -0.244026661     C.3   1  noname   -0.650142
    4   Cl4       -0.042580895    -0.000001755     2.167118819      Cl   1  noname   -0.259625
    5   H5         0.261780010     2.151853794     0.245182101       H   1  noname    0.166105
    6   H6         0.170305516     1.291792351    -1.287278485       H   1  noname    0.176991
    7   H7        -1.214455926     1.305684779    -0.199576749       H   1  noname    0.192644
    8   H8         1.475442197     0.000001226     0.398780092       H   1  noname    0.051468
    9   H9        -1.214456099    -1.305686893    -0.199572776       H   1  noname    0.192644
   10   H10        0.170300576    -1.291793074    -1.287279642       H   1  noname    0.176992
   11   H11        0.261780751    -2.151850276     0.245181658       H   1  noname    0.166105


@<TRIPOS>BOND
    1      1      2    1
    2      2      3    1
    3      2      4    1
    4      1      5    1
    5      1      6    1
    6      1      7    1
    7      2      8    1
    8      3      9    1
    9      3     10    1
   10      3     11    1
#
#	File Created by: Spartan'20 Export
#

@<TRIPOS>MOLECULE
M0132
13 12
SMALL
USER_CHARGES


@<TRIPOS>ATOM
    1   C1         1.135936554     0.454588478     0.552460750     C.3   1  noname   -0.816863
    2   C2        -0.029760181     0.181053742    -0.403668918     C.3   1  noname    0.870950
    3   C3        -0.393943692    -1.300665076    -0.430629775     C.3   1  noname   -0.747326
    4   N4        -1.229617844     0.955344037    -0.104496095     N.3   1  noname   -1.106183
    5   H5         0.874425205     0.172966026     1.570053613       H   1  noname    0.187404
    6   H6         1.396643466     1.509601460     0.555966291       H   1  noname    0.169754
    7   H7         2.022779820    -0.105411036     0.269439271       H   1  noname    0.184498
    8   H8         0.278515422     0.469368077    -1.404870575       H   1  noname   -0.038399
    9   H9        -0.725859826    -1.633936465     0.550373895       H   1  noname    0.187929
   10   H10       -1.198128035    -1.478636986    -1.134605716       H   1  noname    0.181649
   11   H11        0.458920341    -1.909405229    -0.714492725       H   1  noname    0.161383
   12   H12       -1.031848880     1.937908520    -0.126176499       H   1  noname    0.373712
   13   H13       -1.558062349     0.747224451     0.820646482       H   1  noname    0.391493


@<TRIPOS>BOND
    1      1      2    1
    2      2      3    1
    3      2      4    1
    4      1      5    1
    5      1      6    1
    6      1      7    1
    7      2      8    1
    8      3      9    1
    9      3     10    1
   10      3     11    1
   11      4     12    1
   12      4     13    1
#
#	File Created by: Spartan'20 Export
#

@<TRIPOS>MOLECULE
M0133
36 35
SMALL
USER_CHARGES


@<TRIPOS>ATOM
    1   C1        -1.276935326    -2.021855957    -0.283364137     C.3   1  noname   -0.895772
    2   C2        -1.177636966    -0.592136169    -0.823338220     C.3   1  noname    0.956331
    3   C3        -0.653364474    -0.538605609    -2.263853290     C.3   1  noname   -0.913901
    4   N4        -0.543260635     0.389015687     0.085163209   N.pl3   1  noname   -0.799267
    5   C5        -1.412015731     1.527595989     0.465499498     C.3   1  noname    0.763293
    6   C6        -2.586512933     1.047322723     1.322518664     C.3   1  noname   -0.833181
    7   C7        -1.878153554     2.400213011    -0.703773787     C.3   1  noname   -0.747594
    8   C8         0.820406499     0.715165383     0.084650812     C.2   1  noname    0.577499
    9   O9         1.153924930     1.859162996    -0.049585305     O.2   1  noname   -0.574383
   10   C10        1.915144573    -0.318159137     0.480800484     C.3   1  noname    0.901379
   11   C11        3.182772766     0.482485130     0.833072646     C.3   1  noname   -0.775801
   12   C12        2.305995947    -1.298981582    -0.638728287     C.3   1  noname   -0.814417
   13   C13        1.470101479    -1.081520236     1.740549065     C.3   1  noname   -0.914836
   14   H14       -1.956411319    -2.590927774    -0.911682561       H   1  noname    0.189226
   15   H15       -1.675970821    -2.019282180     0.724317987       H   1  noname    0.200601
   16   H16       -0.333645673    -2.549184304    -0.272292757       H   1  noname    0.223349
   17   H17       -2.200496771    -0.255817867    -0.885909685       H   1  noname   -0.022976
   18   H18       -1.286116667    -1.147030020    -2.903536740       H   1  noname    0.193803
   19   H19        0.357319612    -0.909155612    -2.361755609       H   1  noname    0.230708
   20   H20       -0.674409954     0.477474246    -2.640293929       H   1  noname    0.217717
   21   H21       -0.802275468     2.153240089     1.097849244       H   1  noname    0.016551
   22   H22       -3.117572122     1.906095157     1.722065069       H   1  noname    0.195139
   23   H23       -3.307675919     0.456873782     0.766255634       H   1  noname    0.199162
   24   H24       -2.231768799     0.451412443     2.156296071       H   1  noname    0.182022
   25   H25       -2.545222508     1.869791975    -1.377008082       H   1  noname    0.166648
   26   H26       -1.028860859     2.762837893    -1.266843862       H   1  noname    0.190275
   27   H27       -2.423272048     3.259543448    -0.324164460       H   1  noname    0.167404
   28   H28        2.998714232     1.187797001     1.633485440       H   1  noname    0.181730
   29   H29        3.549364126     1.040918996    -0.017254837       H   1  noname    0.176371
   30   H30        3.959782374    -0.204504849     1.154910045       H   1  noname    0.177182
   31   H31        1.525739837    -2.000012532    -0.893126507       H   1  noname    0.186123
   32   H32        2.597562044    -0.768255457    -1.539221199       H   1  noname    0.174261
   33   H33        3.162155040    -1.879663397    -0.310619639       H   1  noname    0.195797
   34   H34        0.605311717    -1.704555439     1.569558800       H   1  noname    0.217437
   35   H35        2.280415373    -1.716299200     2.086687704       H   1  noname    0.213803
   36   H36        1.226867995    -0.390998627     2.542672519       H   1  noname    0.198317


@<TRIPOS>BOND
    1      1      2    1
    2      2      3    1
    3      2      4    1
    4      4      5    1
    5      5      6    1
    6      5      7    1
    7      4      8    1
    8      8      9    2
    9      8     10    1
   10     10     11    1
   11     10     12    1
   12     10     13    1
   13      1     14    1
   14      1     15    1
   15      1     16    1
   16      2     17    1
   17      3     18    1
   18      3     19    1
   19      3     20    1
   20      5     21    1
   21      6     22    1
   22      6     23    1
   23      6     24    1
   24      7     25    1
   25      7     26    1
   26      7     27    1
   27     11     28    1
   28     11     29    1
   29     11     30    1
   30     12     31    1
   31     12     32    1
   32     12     33    1
   33     13     34    1
   34     13     35    1
   35     13     36    1
#
#	File Created by: Spartan'20 Export
#

@<TRIPOS>MOLECULE
M0134
19 18
SMALL
USER_CHARGES


@<TRIPOS>ATOM
    1   C1        -1.197975158     1.181726083     0.200871047     C.3   1  noname   -0.680937
    2   C2        -0.632944799    -0.068470775    -0.490734257     C.3   1  noname    0.752205
    3   C3        -1.493981865    -1.295553808    -0.185430046     C.3   1  noname   -0.855985
    4   N4         0.780170588    -0.340869239    -0.228554038     N.3   1  noname   -0.358602
    5   C5         1.686142125     0.545612517    -0.923470903     C.3   1  noname   -0.526918
    6   C6         1.150359576    -0.489511941     1.162141562     C.3   1  noname   -0.383446
    7   H7        -2.209599021     1.375917638    -0.144228491       H   1  noname    0.145008
    8   H8        -1.238860462     1.059093772     1.279236819       H   1  noname    0.172165
    9   H9        -0.603185785     2.064007995    -0.013845014       H   1  noname    0.163716
   10   H10       -0.695734899     0.096720031    -1.562546949       H   1  noname   -0.011326
   11   H11       -1.075523775    -2.175512204    -0.660255874       H   1  noname    0.189251
   12   H12       -2.502693580    -1.147994674    -0.560356210       H   1  noname    0.193153
   13   H13       -1.572563040    -1.487621769     0.879908524       H   1  noname    0.225335
   14   H14        1.437170649     0.575653500    -1.977992101       H   1  noname    0.161367
   15   H15        2.699824923     0.168942310    -0.834374174       H   1  noname    0.203467
   16   H16        1.682293539     1.571182128    -0.544678290       H   1  noname    0.163363
   17   H17        0.499051218    -1.198043489     1.657873325       H   1  noname    0.145398
   18   H18        2.160636883    -0.881657170     1.219866332       H   1  noname    0.167416
   19   H19        1.127412886     0.446379096     1.726568739       H   1  noname    0.135369


@<TRIPOS>BOND
    1      1      2    1
    2      2      3    1
    3      2      4    1
    4      4      5    1
    5      4      6    1
    6      1      7    1
    7      1      8    1
    8      1      9    1
    9      2     10    1
   10      3     11    1
   11      3     12    1
   12      3     13    1
   13      5     14    1
   14      5     15    1
   15      5     16    1
   16      6     17    1
   17      6     18    1
   18      6     19    1
#
#	File Created by: Spartan'20 Export
#

@<TRIPOS>MOLECULE
M0135
22 21
SMALL
USER_CHARGES


@<TRIPOS>ATOM
    1   C1         2.337655246    -0.320221722    -1.208747713     C.3   1  noname   -0.824404
    2   C2         1.618242405    -0.969712194    -0.021612717     C.3   1  noname    0.843146
    3   C3         2.155647350    -0.457089128     1.318768972     C.3   1  noname   -0.704349
    4   N4         0.164575299    -0.866077677    -0.112149062     N.2   1  noname   -0.787907
    5   C5        -0.371441113     0.266571427    -0.123379565     C.2   1  noname    0.533756
    6   N6        -1.716344112     0.470224710    -0.280805713   N.pl3   1  noname   -0.170934
    7   C7        -2.288774758     1.701804825     0.209789641     C.3   1  noname   -0.486526
    8   C8        -2.586392539    -0.684894985    -0.274304826     C.3   1  noname   -0.469073
    9   H9         1.939600783    -0.697271439    -2.144634617       H   1  noname    0.193653
   10   H10        3.400965415    -0.538880175    -1.178496789       H   1  noname    0.186859
   11   H11        2.224654771     0.760506561    -1.207295594       H   1  noname    0.175734
   12   H12        1.831125604    -2.032516085    -0.064203201       H   1  noname   -0.046162
   13   H13        2.027128361     0.617910590     1.419017856       H   1  noname    0.157582
   14   H14        3.216173030    -0.671106118     1.414842840       H   1  noname    0.152443
   15   H15        1.635509688    -0.935397208     2.141951133       H   1  noname    0.165323
   16   H16        0.179854324     1.196204044    -0.041370063       H   1  noname    0.046314
   17   H17       -3.174741507     1.946005709    -0.362831414       H   1  noname    0.185207
   18   H18       -1.581952097     2.514831009     0.091306536       H   1  noname    0.148538
   19   H19       -2.569988690     1.645203426     1.261357627       H   1  noname    0.173855
   20   H20       -2.155540522    -1.463205322    -0.882426045       H   1  noname    0.175084
   21   H21       -2.736784702    -1.079539833     0.729458709       H   1  noname    0.170988
   22   H22       -3.549172237    -0.403350415    -0.684235996       H   1  noname    0.180875


@<TRIPOS>BOND
    1      1      2    1
    2      2      3    1
    3      2      4    1
    4      4      5    2
    5      5      6    1
    6      6      7    1
    7      6      8    1
    8      1      9    1
    9      1     10    1
   10      1     11    1
   11      2     12    1
   12      3     13    1
   13      3     14    1
   14      3     15    1
   15      5     16    1
   16      7     17    1
   17      7     18    1
   18      7     19    1
   19      8     20    1
   20      8     21    1
   21      8     22    1
#
#	File Created by: Spartan'20 Export
#

@<TRIPOS>MOLECULE
M0136
16 15
SMALL
USER_CHARGES


@<TRIPOS>ATOM
    1   C1        -0.769863392     1.288849746    -0.026471647     C.3   1  noname   -0.719869
    2   C2        -0.318011403    -0.116380499     0.393139997     C.3   1  noname    0.806401
    3   C3        -1.487566757    -1.097769484     0.359935759     C.3   1  noname   -0.943714
    4   N4         0.771098954    -0.664221861    -0.403003539     N.3   1  noname   -0.784749
    5   C5         2.051902185    -0.001051134    -0.282948107     C.3   1  noname   -0.250640
    6   H6        -1.568480817     1.647246081     0.616747207       H   1  noname    0.156009
    7   H7         0.040631031     2.007886732     0.026846284       H   1  noname    0.167018
    8   H8        -1.144859338     1.282054344    -1.047967414       H   1  noname    0.175806
    9   H9         0.047619801    -0.063409614     1.415655332       H   1  noname   -0.001097
   10   H10       -1.876071391    -1.200565388    -0.650838851       H   1  noname    0.222069
   11   H11       -2.302479379    -0.759346404     0.992497737       H   1  noname    0.222944
   12   H12       -1.168173618    -2.076718287     0.696720688       H   1  noname    0.217398
   13   H13        0.497681322    -0.716343615    -1.365359788       H   1  noname    0.383715
   14   H14        2.063724343     1.041353942    -0.604074430       H   1  noname    0.092843
   15   H15        2.376865490    -0.032972085     0.751675686       H   1  noname    0.122383
   16   H16        2.785982967    -0.538612472    -0.872554915       H   1  noname    0.133483


@<TRIPOS>BOND
    1      1      2    1
    2      2      3    1
    3      2      4    1
    4      4      5    1
    5      1      6    1
    6      1      7    1
    7      1      8    1
    8      2      9    1
    9      3     10    1
   10      3     11    1
   11      3     12    1
   12      4     13    1
   13      5     14    1
   14      5     15    1
   15      5     16    1
#
#	File Created by: Spartan'20 Export
#

@<TRIPOS>MOLECULE
M0137
22 21
SMALL
USER_CHARGES


@<TRIPOS>ATOM
    1   C1         1.609334757    -1.404974253     0.198136594     C.3   1  noname   -0.833524
    2   C2         1.206235682     0.068842211     0.340210472     C.3   1  noname    0.793983
    3   C3         2.359836583     0.988322464    -0.057280527     C.3   1  noname   -0.775388
    4   N4         0.033375609     0.456696067    -0.434262615     N.3   1  noname   -0.957014
    5   C5        -1.245202819    -0.186576354    -0.155829333     C.3   1  noname    0.753916
    6   C6        -2.245326035     0.273609067    -1.215062992     C.3   1  noname   -0.799918
    7   C7        -1.746231796     0.174761595     1.242041957     C.3   1  noname   -0.760093
    8   H8         2.496462166    -1.620255491     0.786630907       H   1  noname    0.190068
    9   H9         0.824917760    -2.075166920     0.533056785       H   1  noname    0.181188
   10   H10        1.832844700    -1.644656924    -0.839287477       H   1  noname    0.193319
   11   H11        0.983096914     0.259205359     1.384403884       H   1  noname   -0.003468
   12   H12        2.628910601     0.842833464    -1.101482552       H   1  noname    0.191732
   13   H13        3.243884289     0.788382361     0.540461378       H   1  noname    0.177625
   14   H14        2.077989353     2.026454445     0.074795395       H   1  noname    0.181884
   15   H15        0.244139310     0.360073530    -1.409482037       H   1  noname    0.377894
   16   H16       -1.177366250    -1.275327410    -0.216731041       H   1  noname   -0.039749
   17   H17       -2.364258411     1.351600612    -1.179810145       H   1  noname    0.216198
   18   H18       -3.215427134    -0.187357924    -1.058649093       H   1  noname    0.190152
   19   H19       -1.910787606     0.004350252    -2.213703613       H   1  noname    0.171941
   20   H20       -1.793164843     1.252738207     1.356173484       H   1  noname    0.204254
   21   H21       -2.738704716    -0.233838515     1.403714487       H   1  noname    0.175425
   22   H22       -1.104558114    -0.219715845     2.021956082       H   1  noname    0.169574


@<TRIPOS>BOND
    1      1      2    1
    2      2      3    1
    3      2      4    1
    4      4      5    1
    5      5      6    1
    6      5      7    1
    7      1      8    1
    8      1      9    1
    9      1     10    1
   10      2     11    1
   11      3     12    1
   12      3     13    1
   13      3     14    1
   14      4     15    1
   15      5     16    1
   16      6     17    1
   17      6     18    1
   18      6     19    1
   19      7     20    1
   20      7     21    1
   21      7     22    1
#
#	File Created by: Spartan'20 Export
#

@<TRIPOS>MOLECULE
M0138
17 16
SMALL
USER_CHARGES


@<TRIPOS>ATOM
    1   C1         1.320337647     1.101733906     0.795268764     C.3   1  noname   -0.743358
    2   C2         0.874288810    -0.252693964     0.266660834     C.3   1  noname    0.749878
    3   C3         1.812193413    -0.818868769    -0.784920878     C.3   1  noname   -0.802930
    4   O4        -0.403637306    -0.126465697    -0.372343758     O.3   1  noname   -0.551225
    5   C5        -1.500446234    -0.152178503     0.370213000     C.2   1  noname    0.971024
    6   O6        -1.502089130    -0.271378324     1.553388679     O.2   1  noname   -0.633499
    7   C7        -2.736238053    -0.016134947    -0.478355946     C.3   1  noname   -0.799747
    8   H8         1.386718142     1.821611699    -0.014142887       H   1  noname    0.194239
    9   H9         2.297890921     1.017757209     1.259176301       H   1  noname    0.177701
   10   H10        0.624966868     1.472155387     1.537795983       H   1  noname    0.190167
   11   H11        0.768049281    -0.947788823     1.086475936       H   1  noname   -0.010837
   12   H12        1.450523951    -1.774977911    -1.145794750       H   1  noname    0.191560
   13   H13        2.802031902    -0.963143484    -0.364449488       H   1  noname    0.195801
   14   H14        1.893357056    -0.143235972    -1.629720663       H   1  noname    0.216753
   15   H15       -2.698466849     0.914774533    -1.032520589       H   1  noname    0.221955
   16   H16       -2.776656766    -0.824938604    -1.198357836       H   1  noname    0.215651
   17   H17       -3.612823653    -0.036227737     0.151627298       H   1  noname    0.216867


@<TRIPOS>BOND
    1      1      2    1
    2      2      3    1
    3      2      4    1
    4      4      5    1
    5      5      6    2
    6      5      7    1
    7      1      8    1
    8      1      9    1
    9      1     10    1
   10      2     11    1
   11      3     12    1
   12      3     13    1
   13      3     14    1
   14      7     15    1
   15      7     16    1
   16      7     17    1
#
#	File Created by: Spartan'20 Export
#

@<TRIPOS>MOLECULE
M0139
21 20
SMALL
USER_CHARGES


@<TRIPOS>ATOM
    1   C1         0.918674998    -2.167539348    -0.665703429     C.3   1  noname   -0.774824
    2   C2         0.108401351    -1.198420696     0.181726265     C.3   1  noname    0.808279
    3   C3        -1.276509553    -1.746770011     0.512608789     C.3   1  noname   -0.818217
    4   O4         0.000027246    -0.000003091    -0.548451580     O.3   1  noname   -0.593903
    5   C5        -0.108386413     1.198412187     0.181722507     C.3   1  noname    0.808287
    6   C6         1.276506130     1.746799442     0.512619328     C.3   1  noname   -0.818228
    7   C7        -0.918677479     2.167509744    -0.665714519     C.3   1  noname   -0.774826
    8   H8         1.900835347    -1.757471957    -0.872218469       H   1  noname    0.180721
    9   H9         0.419540539    -2.342629447    -1.613048593       H   1  noname    0.206557
   10   H10        1.039776099    -3.120180012    -0.158964927       H   1  noname    0.177808
   11   H11        0.645836382    -1.012602421     1.109761988       H   1  noname   -0.057917
   12   H12       -1.203007252    -2.669331705     1.080313230       H   1  noname    0.187982
   13   H13       -1.850723793    -1.038856264     1.101249769       H   1  noname    0.175627
   14   H14       -1.825310065    -1.947003690    -0.401487619       H   1  noname    0.210935
   15   H15       -0.645822969     1.012581117     1.109755002       H   1  noname   -0.057917
   16   H16        1.850778871     1.038853398     1.101177469       H   1  noname    0.175634
   17   H17        1.825272271     1.947161943    -0.401490377       H   1  noname    0.210936
   18   H18        1.202960703     2.669316641     1.080418188       H   1  noname    0.187979
   19   H19       -1.039790769     3.120152685    -0.158983822       H   1  noname    0.177810
   20   H20       -0.419549098     2.342595877    -1.613064585       H   1  noname    0.206557
   21   H21       -1.900832545     1.757425608    -0.872224614       H   1  noname    0.180720


@<TRIPOS>BOND
    1      1      2    1
    2      2      3    1
    3      2      4    1
    4      4      5    1
    5      5      6    1
    6      5      7    1
    7      1      8    1
    8      1      9    1
    9      1     10    1
   10      2     11    1
   11      3     12    1
   12      3     13    1
   13      3     14    1
   14      5     15    1
   15      6     16    1
   16      6     17    1
   17      6     18    1
   18      7     19    1
   19      7     20    1
   20      7     21    1
#
#	File Created by: Spartan'20 Export
#

@<TRIPOS>MOLECULE
M0140
20 20
SMALL
USER_CHARGES


@<TRIPOS>ATOM
    1   C1         0.217904504    -1.264861790    -1.934611975     C.3   1  noname   -0.622126
    2   C2        -0.372138981     0.000209110    -1.299267129     C.3   1  noname    0.163919
    3   C3         0.218602199     1.264832472    -1.934825893     C.3   1  noname   -0.625016
    4   C4        -0.163378877     0.000181421     0.204429728     C.2   1  noname    0.828251
    5   C5        -1.239006010    -0.000307448     1.085441988     C.2   1  noname   -0.746882
    6   C6        -0.993594038    -0.000420879     2.447167441     C.2   1  noname    0.310911
    7   C7         0.316260027    -0.000031285     2.890653809     C.2   1  noname   -0.568239
    8   C8         1.318077216     0.000464699     1.934722780     C.2   1  noname    0.424518
    9   N9         1.090841600     0.000557649     0.635322523     N.2   1  noname   -0.726053
   10   H10       -0.227032150    -2.160870196    -1.512309965       H   1  noname    0.132824
   11   H11        1.288110072    -1.310618507    -1.769553435       H   1  noname    0.175345
   12   H12        0.035029243    -1.272394324    -3.005338282       H   1  noname    0.174866
   13   H13       -1.443714078     0.000484698    -1.480584496       H   1  noname    0.037631
   14   H14       -0.225815429     2.161173374    -1.512681609       H   1  noname    0.133317
   15   H15        0.035686547     1.272260572    -3.005549170       H   1  noname    0.175661
   16   H16        1.288831734     1.310017868    -1.769813425       H   1  noname    0.176164
   17   H17       -2.245284719    -0.000577351     0.709127781       H   1  noname    0.210311
   18   H18       -1.810088347    -0.000808023     3.147319107       H   1  noname    0.087879
   19   H19        0.558467823    -0.000089476     3.937028195       H   1  noname    0.199032
   20   H20        2.352241667     0.000797416     2.233322028       H   1  noname    0.057688


@<TRIPOS>BOND
    1      1      2    1
    2      2      3    1
    3      2      4    1
    4      4      5    2
    5      5      6    1
    6      6      7    2
    7      7      8    1
    8      8      9    2
    9      9      4    1
   10      1     10    1
   11      1     11    1
   12      1     12    1
   13      2     13    1
   14      3     14    1
   15      3     15    1
   16      3     16    1
   17      5     17    1
   18      6     18    1
   19      7     19    1
   20      8     20    1
#
#	File Created by: Spartan'20 Export
#

@<TRIPOS>MOLECULE
M0141
29 29
SMALL
USER_CHARGES


@<TRIPOS>ATOM
    1   C1        -2.602564674     1.333769730    -0.576219594     C.3   1  noname   -0.790486
    2   C2        -1.620893020     0.214153636    -0.207262589     C.3   1  noname    0.988678
    3   C3        -0.199371997     0.803702187    -0.139211799     C.3   1  noname   -0.537948
    4   C4         0.922745083    -0.218868203    -0.133693075     C.2   1  noname    0.464195
    5   C5         0.697535242    -1.485522186    -0.541071732     C.2   1  noname   -0.842542
    6   C6        -0.583821134    -1.933186146    -1.080015617     C.2   1  noname    0.921558
    7   O7        -0.773672822    -3.075543504    -1.400477288     O.2   1  noname   -0.623640
    8   C8        -1.656900203    -0.882236072    -1.276907433     C.3   1  noname   -0.797726
    9   N9         2.163329391     0.229212985     0.241695489   N.pl3   1  noname   -0.022051
   10   C10        3.256665632    -0.720955837     0.296071369     C.3   1  noname   -0.544042
   11   C11        2.339025252     1.457687972     0.994314498     C.3   1  noname   -0.469614
   12   C12       -2.024584796    -0.363102224     1.160465082     C.3   1  noname   -0.715644
   13   H13       -3.619873404     0.956422748    -0.613411067       H   1  noname    0.189717
   14   H14       -2.370993290     1.759670334    -1.548038741       H   1  noname    0.170141
   15   H15       -2.575023517     2.136833165     0.155533471       H   1  noname    0.164884
   16   H16       -0.136020619     1.424517202     0.745414062       H   1  noname    0.147907
   17   H17       -0.032820438     1.464756713    -0.988195829       H   1  noname    0.135776
   18   H18        1.458616957    -2.238843280    -0.519445657       H   1  noname    0.252294
   19   H19       -2.619015152    -1.379970116    -1.307914448       H   1  noname    0.186613
   20   H20       -1.491686483    -0.441445828    -2.259452246       H   1  noname    0.185732
   21   H21        4.174110154    -0.193838475     0.513155079       H   1  noname    0.197869
   22   H22        3.373850513    -1.215339783    -0.659057034       H   1  noname    0.178772
   23   H23        3.108316986    -1.481166824     1.059752162       H   1  noname    0.184251
   24   H24        1.988193202     1.380083958     2.022120374       H   1  noname    0.160326
   25   H25        1.835995155     2.287121946     0.518983601       H   1  noname    0.149338
   26   H26        3.392216936     1.697932750     1.019715114       H   1  noname    0.183278
   27   H27       -2.034063598     0.415201619     1.918657630       H   1  noname    0.145678
   28   H28       -3.021842837    -0.789138262     1.113289528       H   1  noname    0.164217
   29   H29       -1.347452520    -1.141910204     1.491206689       H   1  noname    0.172469


@<TRIPOS>BOND
    1      1      2    1
    2      2      3    1
    3      3      4    1
    4      4      5    2
    5      5      6    1
    6      6      7    2
    7      6      8    1
    8      4      9    1
    9      9     10    1
   10      9     11    1
   11      2     12    1
   12      8      2    1
   13      1     13    1
   14      1     14    1
   15      1     15    1
   16      3     16    1
   17      3     17    1
   18      5     18    1
   19      8     19    1
   20      8     20    1
   21     10     21    1
   22     10     22    1
   23     10     23    1
   24     11     24    1
   25     11     25    1
   26     11     26    1
   27     12     27    1
   28     12     28    1
   29     12     29    1
#
#	File Created by: Spartan'20 Export
#

@<TRIPOS>MOLECULE
M0142
25 25
SMALL
USER_CHARGES


@<TRIPOS>ATOM
    1   C1         2.108531704     1.087455768     0.675522947     C.3   1  noname   -0.846970
    2   C2         1.188604982    -0.000089829     0.131977509     C.3   1  noname    0.988796
    3   C3         0.712384532     0.275827061    -1.304755459     C.3   1  noname   -0.342901
    4   C4        -0.712173059    -0.275600825    -1.305060390     C.3   1  noname   -0.342942
    5   C5        -1.188588452    -0.000002405     0.131660609     C.3   1  noname    0.989468
    6   O6        -0.000069337    -0.000215339     0.909704938     O.3   1  noname   -0.675055
    7   C7        -2.108762361    -1.087569908     0.674730389     C.3   1  noname   -0.847122
    8   C8        -1.849554418     1.373590998     0.259664721     C.3   1  noname   -0.755894
    9   C9         1.849543537    -1.373673880     0.259779678     C.3   1  noname   -0.754160
   10   H10        2.371735802     0.879088383     1.706588900       H   1  noname    0.216295
   11   H11        3.024230461     1.146206316     0.094890751       H   1  noname    0.176192
   12   H12        1.616421062     2.052717184     0.641723459       H   1  noname    0.189129
   13   H13        1.350724594    -0.188718944    -2.047841008       H   1  noname    0.101271
   14   H14        0.707806393     1.343298994    -1.501451202       H   1  noname    0.094054
   15   H15       -0.707675955    -1.342997539    -1.502104160       H   1  noname    0.094041
   16   H16       -1.350269066     0.189243848    -2.048175676       H   1  noname    0.101347
   17   H17       -2.371804611    -0.879612924     1.705918742       H   1  noname    0.216416
   18   H18       -3.024568923    -1.145909981     0.094130827       H   1  noname    0.176254
   19   H19       -1.616790065    -2.052933221     0.640329720       H   1  noname    0.189024
   20   H20       -2.025267374     1.602742323     1.305160159       H   1  noname    0.186677
   21   H21       -2.801440988     1.399731787    -0.263360003       H   1  noname    0.161192
   22   H22       -1.215690412     2.153314248    -0.150837595       H   1  noname    0.169060
   23   H23        1.214281401    -2.153413295    -0.145897733       H   1  noname    0.168859
   24   H24        2.029663621    -1.600938084     1.304189441       H   1  noname    0.186204
   25   H25        2.798726932    -1.401540738    -0.266489564       H   1  noname    0.160763


@<TRIPOS>BOND
    1      1      2    1
    2      2      3    1
    3      3      4    1
    4      4      5    1
    5      5      6    1
    6      5      7    1
    7      5      8    1
    8      2      9    1
    9      6      2    1
   10      1     10    1
   11      1     11    1
   12      1     12    1
   13      3     13    1
   14      3     14    1
   15      4     15    1
   16      4     16    1
   17      7     17    1
   18      7     18    1
   19      7     19    1
   20      8     20    1
   21      8     21    1
   22      8     22    1
   23      9     23    1
   24      9     24    1
   25      9     25    1
#
#	File Created by: Spartan'20 Export
#

@<TRIPOS>MOLECULE
M0143
29 29
SMALL
USER_CHARGES


@<TRIPOS>ATOM
    1   C1         0.973148180     1.670913305    -1.258203235     C.3   1  noname   -0.879241
    2   C2         0.290517992     1.280327099     0.067476809     C.3   1  noname    1.286524
    3   C3        -1.227797790     1.168226779    -0.114169945     C.3   1  noname   -0.535633
    4   C4        -1.667174055     0.000810456    -1.017348358     C.3   1  noname    0.019177
    5   C5        -0.671743212    -1.175148644    -1.014142965     C.3   1  noname   -0.538039
    6   C6         0.159148309    -1.271139055     0.275978288     C.3   1  noname    1.237563
    7   N7         0.797101063     0.013587294     0.607545036     N.3   1  noname   -1.178083
    8   C8        -0.723560640    -1.716549255     1.454188758     C.3   1  noname   -0.806981
    9   C9         1.266209759    -2.314202850     0.088724223     C.3   1  noname   -0.832362
   10   C10        0.598990353     2.368997379     1.103231225     C.3   1  noname   -0.852941
   11   H11        2.050307372     1.734156446    -1.123277958       H   1  noname    0.172143
   12   H12        0.630480197     2.643911872    -1.599218542       H   1  noname    0.181659
   13   H13        0.783573210     0.956409088    -2.049713858       H   1  noname    0.198883
   14   H14       -1.669616544     1.053488798     0.869007691       H   1  noname    0.123436
   15   H15       -1.607689650     2.105174493    -0.508846305       H   1  noname    0.106018
   16   H16       -2.646237905    -0.337515158    -0.693527703       H   1  noname    0.058063
   17   H17       -1.796068817     0.346575791    -2.038143485       H   1  noname    0.059644
   18   H18       -1.201877531    -2.110188629    -1.172465110       H   1  noname    0.107993
   19   H19        0.012640831    -1.073736331    -1.850245485       H   1  noname    0.106718
   20   H20        1.786749802    -0.037607690     0.480650780       H   1  noname    0.371849
   21   H21       -0.127835592    -1.775202884     2.358369460       H   1  noname    0.174639
   22   H22       -1.162421440    -2.693084283     1.265765484       H   1  noname    0.154937
   23   H23       -1.531727108    -1.020084020     1.641131689       H   1  noname    0.193648
   24   H24        1.909650492    -2.054546343    -0.747564635       H   1  noname    0.159399
   25   H25        0.847388453    -3.296570588    -0.103868033       H   1  noname    0.177524
   26   H26        1.880903777    -2.383147471     0.981679697       H   1  noname    0.194394
   27   H27        0.247508577     3.342953747     0.772764449       H   1  noname    0.166986
   28   H28        0.129663561     2.131069147     2.050641817       H   1  noname    0.181019
   29   H29        1.669768356     2.442121509     1.273580212       H   1  noname    0.191064


@<TRIPOS>BOND
    1      1      2    1
    2      2      3    1
    3      3      4    1
    4      4      5    1
    5      5      6    1
    6      6      7    1
    7      6      8    1
    8      6      9    1
    9      2     10    1
   10      7      2    1
   11      1     11    1
   12      1     12    1
   13      1     13    1
   14      3     14    1
   15      3     15    1
   16      4     16    1
   17      4     17    1
   18      5     18    1
   19      5     19    1
   20      7     20    1
   21      8     21    1
   22      8     22    1
   23      8     23    1
   24      9     24    1
   25      9     25    1
   26      9     26    1
   27     10     27    1
   28     10     28    1
   29     10     29    1
#
#	File Created by: Spartan'20 Export
#

@<TRIPOS>MOLECULE
M0144
32 32
SMALL
USER_CHARGES


@<TRIPOS>ATOM
    1   C1         0.654672566    -1.565381270    -1.500724477     C.3   1  noname   -0.908981
    2   C2        -0.045829071    -1.271662591    -0.156495540     C.3   1  noname    1.305193
    3   C3         0.980259818    -1.247997984     0.996366233     C.3   1  noname   -0.463324
    4   C4         1.857792369     0.000002005     0.999419262     C.3   1  noname   -0.025686
    5   C5         0.980255788     1.247997856     0.996368458     C.3   1  noname   -0.463020
    6   C6        -0.045825137     1.271658636    -0.156496594     C.3   1  noname    1.305104
    7   N7        -0.828170896    -0.000001178    -0.231742665     N.3   1  noname   -0.872434
    8   C8        -2.045301004    -0.000000698     0.567244654     C.3   1  noname   -0.478865
    9   C9         0.654697245     1.565387946    -1.500721335     C.3   1  noname   -0.909142
   10   C10       -0.966324736     2.485309556     0.076843854     C.3   1  noname   -0.838852
   11   C11       -0.966316027    -2.485317475     0.076856787     C.3   1  noname   -0.839711
   12   H12        0.989923514    -2.597464188    -1.519844190       H   1  noname    0.179882
   13   H13        1.524900065    -0.956880536    -1.685949773       H   1  noname    0.199070
   14   H14       -0.040802727    -1.418907244    -2.318738339       H   1  noname    0.191837
   15   H15        0.442619064    -1.292000076     1.941639119       H   1  noname    0.105891
   16   H16        1.593991613    -2.144274084     0.949253447       H   1  noname    0.079258
   17   H17        2.528152493     0.000005313     0.145217274       H   1  noname    0.029590
   18   H18        2.493768200     0.000002265     1.880683162       H   1  noname    0.068005
   19   H19        1.593986101     2.144277205     0.949256339       H   1  noname    0.079156
   20   H20        0.442615172     1.292000930     1.941641968       H   1  noname    0.105786
   21   H21       -2.650222634     0.857405023     0.324549981       H   1  noname    0.188079
   22   H22       -1.884275131     0.000018075     1.648696064       H   1  noname    0.117425
   23   H23       -2.650206048    -0.857427254     0.324576376       H   1  noname    0.188123
   24   H24       -0.040776353     1.418911756    -2.318746326       H   1  noname    0.191859
   25   H25        1.524946555     0.956880203    -1.685950452       H   1  noname    0.199109
   26   H26        0.989949960     2.597482160    -1.519812191       H   1  noname    0.179885
   27   H27       -0.363969913     3.386101832     0.047897423       H   1  noname    0.162315
   28   H28       -1.719908516     2.568413774    -0.699334371       H   1  noname    0.205756
   29   H29       -1.460380305     2.465609736     1.039712641       H   1  noname    0.174997
   30   H30       -1.460338450    -2.465627580     1.039742128       H   1  noname    0.175192
   31   H31       -1.719923398    -2.568414802    -0.699294916       H   1  noname    0.205985
   32   H32       -0.363960178    -3.386107314     0.047885996       H   1  noname    0.162519


@<TRIPOS>BOND
    1      1      2    1
    2      2      3    1
    3      3      4    1
    4      4      5    1
    5      5      6    1
    6      6      7    1
    7      7      8    1
    8      6      9    1
    9      6     10    1
   10      2     11    1
   11      7      2    1
   12      1     12    1
   13      1     13    1
   14      1     14    1
   15      3     15    1
   16      3     16    1
   17      4     17    1
   18      4     18    1
   19      5     19    1
   20      5     20    1
   21      8     21    1
   22      8     22    1
   23      8     23    1
   24      9     24    1
   25      9     25    1
   26      9     26    1
   27     10     27    1
   28     10     28    1
   29     10     29    1
   30     11     30    1
   31     11     31    1
   32     11     32    1
#
#	File Created by: Spartan'20 Export
#

@<TRIPOS>MOLECULE
M0145
12 12
SMALL
USER_CHARGES


@<TRIPOS>ATOM
    1   C1         1.473530188     0.474943713    -0.220297534     C.3   1  noname   -0.736427
    2   C2         0.283605363    -0.085635356     0.521545347     C.3   1  noname    0.703521
    3   C3        -0.787750089    -0.843025489    -0.277674272     C.3   1  noname   -0.786117
    4   C4        -1.668484337     0.315409280     0.149830955     C.2   1  noname    0.862387
    5   O5        -2.784285766     0.648778522     0.009410605     O.2   1  noname   -0.548556
    6   O6        -0.692384592     0.937172202     0.828262676     O.3   1  noname   -0.537954
    7   H7         2.005509563     1.185607165     0.401100046       H   1  noname    0.197319
    8   H8         2.156430506    -0.324574423    -0.489000990       H   1  noname    0.175195
    9   H9         1.158724643     0.981687195    -1.125798098       H   1  noname    0.209571
   10   H10        0.581304354    -0.576616159     1.437589564       H   1  noname   -0.006623
   11   H11       -0.628900223    -0.910060633    -1.346124856       H   1  noname    0.243646
   12   H12       -1.097299610    -1.803686016     0.111156557       H   1  noname    0.224038


@<TRIPOS>BOND
    1      1      2    1
    2      2      3    1
    3      3      4    1
    4      4      5    2
    5      4      6    1
    6      6      2    1
    7      1      7    1
    8      1      8    1
    9      1      9    1
   10      2     10    1
   11      3     11    1
   12      3     12    1
#
#	File Created by: Spartan'20 Export
#

@<TRIPOS>MOLECULE
M0146
15 15
SMALL
USER_CHARGES


@<TRIPOS>ATOM
    1   C1        -2.004772868    -0.208081299    -0.133417469     C.3   1  noname   -0.750267
    2   C2        -0.522676363    -0.496218970    -0.242216648     C.3   1  noname    0.555977
    3   C3         0.356067909     0.682538293    -0.673963723     C.3   1  noname   -0.193050
    4   C4         1.671240345     0.374564629     0.036353204     C.3   1  noname   -0.428228
    5   C5         1.224570973    -0.428208179     1.243352808     C.2   1  noname    0.840495
    6   O6         1.840731904    -0.666012743     2.222539479     O.2   1  noname   -0.590118
    7   O7        -0.022878048    -0.858522783     1.044714618     O.3   1  noname   -0.508035
    8   H8        -2.183123715     0.607654396     0.558498798       H   1  noname    0.206930
    9   H9        -2.402737488     0.066524824    -1.105539046       H   1  noname    0.168142
   10   H10       -2.538745290    -1.081588597     0.221569604       H   1  noname    0.213353
   11   H11       -0.359347095    -1.343505590    -0.900831374       H   1  noname    0.000896
   12   H12        0.443530860     0.755832761    -1.750641564       H   1  noname    0.080111
   13   H13       -0.065280312     1.612663516    -0.305560523       H   1  noname    0.104911
   14   H14        2.241541308     1.238205435     0.348178818       H   1  noname    0.158617
   15   H15        2.321877880    -0.255845695    -0.563036983       H   1  noname    0.140266


@<TRIPOS>BOND
    1      1      2    1
    2      2      3    1
    3      3      4    1
    4      4      5    1
    5      5      6    2
    6      5      7    1
    7      7      2    1
    8      1      8    1
    9      1      9    1
   10      1     10    1
   11      2     11    1
   12      3     12    1
   13      3     13    1
   14      4     14    1
   15      4     15    1
#
#	File Created by: Spartan'20 Export
#

@<TRIPOS>MOLECULE
M0147
16 16
SMALL
USER_CHARGES


@<TRIPOS>ATOM
    1   C1         2.005186523     0.607713875    -0.252111357     C.3   1  noname   -0.832909
    2   C2         0.657024591     0.322222940     0.381871515     C.3   1  noname    0.678368
    3   C3         0.053696537    -1.045841754     0.067705671     C.3   1  noname   -0.267342
    4   C4        -1.439434369    -0.772825841     0.247243714     C.3   1  noname   -0.258981
    5   C5        -1.557715708     0.663350196    -0.271035206     C.3   1  noname    0.058836
    6   O6        -0.290289184     1.254031250    -0.098150003     O.3   1  noname   -0.514026
    7   H7         2.328039822     1.616170221    -0.019010591       H   1  noname    0.213641
    8   H8         2.756536186    -0.085362430     0.115750738       H   1  noname    0.177256
    9   H9         1.942129904     0.512108381    -1.330974695       H   1  noname    0.214378
   10   H10        0.739122887     0.436768423     1.461836307       H   1  noname   -0.029763
   11   H11        0.433093204    -1.830219940     0.712214590       H   1  noname    0.076246
   12   H12        0.269013108    -1.319658159    -0.961566013       H   1  noname    0.115722
   13   H13       -2.077847574    -1.464111054    -0.290188281       H   1  noname    0.105172
   14   H14       -1.706097597    -0.821654631     1.298549692       H   1  noname    0.103721
   15   H15       -1.812572512     0.683534621    -1.326538961       H   1  noname    0.085424
   16   H16       -2.299885818     1.243773902     0.264402880       H   1  noname    0.074257


@<TRIPOS>BOND
    1      1      2    1
    2      2      3    1
    3      3      4    1
    4      4      5    1
    5      5      6    1
    6      6      2    1
    7      1      7    1
    8      1      8    1
    9      1      9    1
   10      2     10    1
   11      3     11    1
   12      3     12    1
   13      4     13    1
   14      4     14    1
   15      5     15    1
   16      5     16    1
#
#	File Created by: Spartan'20 Export
#

@<TRIPOS>MOLECULE
M0148
11 11
SMALL
USER_CHARGES


@<TRIPOS>ATOM
    1   C1         1.291491011     0.125705425    -0.215591725     C.3   1  noname   -0.666179
    2   C2        -0.085879337     0.509265056     0.269797137     C.3   1  noname    0.270947
    3   C3        -1.290993170    -0.100106107    -0.313978627     C.3   1  noname   -0.263144
    4   N4        -0.879211470    -0.427379276     1.040467889     N.3   1  noname   -0.699902
    5   H5         2.017745382     0.191580711     0.588952733       H   1  noname    0.189215
    6   H6         1.616737727     0.785977724    -1.013677183       H   1  noname    0.166518
    7   H7         1.304487417    -0.891222994    -0.597764528       H   1  noname    0.189341
    8   H8        -0.163016443     1.520649913     0.633576411       H   1  noname    0.094183
    9   H9        -2.207006935     0.458801305    -0.390840235       H   1  noname    0.158083
   10   H10       -1.158082700    -0.843409744    -1.083177973       H   1  noname    0.156408
   11   H11       -0.446271482    -1.329862012     1.082236101       H   1  noname    0.404531


@<TRIPOS>BOND
    1      1      2    1
    2      2      3    1
    3      3      4    1
    4      4      2    1
    5      1      5    1
    6      1      6    1
    7      1      7    1
    8      2      8    1
    9      3      9    1
   10      3     10    1
   11      4     11    1
#
#	File Created by: Spartan'20 Export
#

@<TRIPOS>MOLECULE
M0149
10 10
SMALL
USER_CHARGES


@<TRIPOS>ATOM
    1   C1        -1.214079750     0.281466873    -0.142550002     C.3   1  noname   -0.611807
    2   C2         0.126693849    -0.365059072    -0.366011213     C.3   1  noname    0.257633
    3   C3         1.315303431     0.027325863     0.371906101     C.3   1  noname   -0.264596
    4   O4         0.624181926    -1.155198720     0.682613459     O.3   1  noname   -0.337343
    5   H5        -1.275180574     0.699424386     0.855600726       H   1  noname    0.193232
    6   H6        -2.008522282    -0.449388846    -0.253131693       H   1  noname    0.185929
    7   H7        -1.381361007     1.075056790    -0.864539752       H   1  noname    0.156662
    8   H8         0.269615425    -0.805633683    -1.340504775       H   1  noname    0.084558
    9   H9         2.292000015    -0.111505441    -0.059888999       H   1  noname    0.154111
   10   H10        1.251348967     0.803511850     1.116506147       H   1  noname    0.181620


@<TRIPOS>BOND
    1      1      2    1
    2      2      3    1
    3      3      4    1
    4      4      2    1
    5      1      5    1
    6      1      6    1
    7      1      7    1
    8      2      8    1
    9      3      9    1
   10      3     10    1
#
#	File Created by: Spartan'20 Export
#

@<TRIPOS>MOLECULE
M0150
13 13
SMALL
USER_CHARGES


@<TRIPOS>ATOM
    1   C1         1.586516242     0.266535205     0.477242907     C.3   1  noname   -0.751597
    2   C2         0.388358654    -0.060442063    -0.386466035     C.3   1  noname    0.529645
    3   C3        -0.656747287    -0.978405317     0.248206289     C.3   1  noname   -0.040899
    4   O4        -1.873935727    -0.407879883    -0.181930694     O.3   1  noname   -0.438546
    5   C5        -1.678309680     0.842790805    -0.597215985     C.2   1  noname    0.917770
    6   O6        -2.530511146     1.594563811    -0.889176053     O.2   1  noname   -0.569942
    7   O7        -0.375366446     1.111423041    -0.630802082     O.3   1  noname   -0.492621
    8   H8         1.270258655     0.699147261     1.419502077       H   1  noname    0.212822
    9   H9         2.157477709    -0.634271382     0.679901985       H   1  noname    0.173137
   10   H10        2.233468219     0.973707839    -0.026622831       H   1  noname    0.222334
   11   H11        0.706630841    -0.448663309    -1.346703946       H   1  noname    0.016674
   12   H12       -0.620934703    -0.958996110     1.330296747       H   1  noname    0.119069
   13   H13       -0.606905330    -1.999509897    -0.096232379       H   1  noname    0.102154


@<TRIPOS>BOND
    1      1      2    1
    2      2      3    1
    3      3      4    1
    4      4      5    1
    5      5      6    2
    6      5      7    1
    7      7      2    1
    8      1      8    1
    9      1      9    1
   10      1     10    1
   11      2     11    1
   12      3     12    1
   13      3     13    1
#
#	File Created by: Spartan'20 Export
#

@<TRIPOS>MOLECULE
M0151
7 6
SMALL
USER_CHARGES


@<TRIPOS>ATOM
    1   C1        -0.274194836    -0.000012884    -0.587819094     C.3   1  noname   -0.571380
    2   C2         0.344890345     0.000024401     0.783032974     C.2   1  noname    0.617955
    3   O3        -0.271421754    -0.000083690     1.798450709     O.2   1  noname   -0.516605
    4   H4         0.057016657     0.874629094    -1.141268685       H   1  noname    0.153744
    5   H5        -1.353226543     0.000056915    -0.512501588       H   1  noname    0.178384
    6   H6         0.056951051    -0.874686502    -1.141237000       H   1  noname    0.153769
    7   H7         1.439985080     0.000072667     0.801342683       H   1  noname   -0.015867


@<TRIPOS>BOND
    1      1      2    1
    2      2      3    2
    3      1      4    1
    4      1      5    1
    5      1      6    1
    6      2      7    1
#
#	File Created by: Spartan'20 Export
#

@<TRIPOS>MOLECULE
M0152
13 12
SMALL
USER_CHARGES


@<TRIPOS>ATOM
    1   C1        -0.360018004    -0.000282321    -1.889748277     C.3   1  noname   -0.536885
    2   C2         0.422241342     0.000684554    -0.582138945     C.3   1  noname   -0.111497
    3   C3        -0.460054907     0.000337423     0.654157538     C.2   1  noname    0.828110
    4   O4        -1.650849991     0.000554858     0.583792812     O.2   1  noname   -0.561735
    5   C5         0.253466669    -0.000326883     1.990511519     C.3   1  noname   -0.889004
    6   H6        -0.996517363     0.873211752    -1.962052566       H   1  noname    0.153467
    7   H7        -0.995300731    -0.874704507    -1.961494938       H   1  noname    0.153452
    8   H8         0.318903095    -0.000076245    -2.735984764       H   1  noname    0.149249
    9   H9         1.078142475     0.867316641    -0.523745551       H   1  noname    0.072175
   10   H10        1.079556093    -0.864880215    -0.523316213       H   1  noname    0.072161
   11   H11       -0.472178080     0.000971558     2.791992026       H   1  noname    0.246432
   12   H12        0.892798187     0.873116172     2.078843400       H   1  noname    0.211978
   13   H13        0.889811215    -0.875922786     2.079183958       H   1  noname    0.212097


@<TRIPOS>BOND
    1      1      2    1
    2      2      3    1
    3      3      4    2
    4      3      5    1
    5      1      6    1
    6      1      7    1
    7      1      8    1
    8      2      9    1
    9      2     10    1
   10      5     11    1
   11      5     12    1
   12      5     13    1
#
#	File Created by: Spartan'20 Export
#

@<TRIPOS>MOLECULE
M0153
16 15
SMALL
USER_CHARGES


@<TRIPOS>ATOM
    1   C1         2.546299459    -0.000015879     0.339771249     C.3   1  noname   -0.417252
    2   C2         1.290375841     0.000046449    -0.523672247     C.3   1  noname   -0.100248
    3   C3         0.000001836    -0.000003400     0.278491237     C.2   1  noname    0.622427
    4   O4         0.000003685    -0.000010247     1.471461911     O.2   1  noname   -0.531663
    5   C5        -1.290373889    -0.000048727    -0.523668733     C.3   1  noname   -0.100249
    6   C6        -2.546300496     0.000019838     0.339771570     C.3   1  noname   -0.417250
    7   H7         2.578058331     0.873863048     0.979174878       H   1  noname    0.126395
    8   H8         2.578063522    -0.873993926     0.979041971       H   1  noname    0.126547
    9   H9         3.433886979     0.000031928    -0.284509919       H   1  noname    0.118771
   10   H10        1.275131299     0.866348112    -1.182323835       H   1  noname    0.050810
   11   H11        1.275130251    -0.866147559    -1.182462078       H   1  noname    0.049594
   12   H12       -1.275124690     0.866146441    -1.182457099       H   1  noname    0.049594
   13   H13       -1.275134891    -0.866349614    -1.182321146       H   1  noname    0.050811
   14   H14       -2.578065762     0.873999157     0.979039840       H   1  noname    0.126546
   15   H15       -3.433884788    -0.000027332    -0.284513950       H   1  noname    0.118771
   16   H16       -2.578066683    -0.873858290     0.979176351       H   1  noname    0.126395


@<TRIPOS>BOND
    1      1      2    1
    2      2      3    1
    3      3      4    2
    4      3      5    1
    5      5      6    1
    6      1      7    1
    7      1      8    1
    8      1      9    1
    9      2     10    1
   10      2     11    1
   11      5     12    1
   12      5     13    1
   13      6     14    1
   14      6     15    1
   15      6     16    1
#
#	File Created by: Spartan'20 Export
#

@<TRIPOS>MOLECULE
M0154
18 17
SMALL
USER_CHARGES


@<TRIPOS>ATOM
    1   C1         2.309965107     0.109725427    -0.257868710     C.3   1  noname   -0.370537
    2   C2         1.359692230    -0.508491621     0.775979465     C.3   1  noname   -0.090101
    3   C3         0.059319581    -0.970899430     0.134901794     C.2   1  noname    0.462133
    4   O4        -0.025760229    -2.106741197    -0.256002765     O.2   1  noname   -0.571872
    5   N5        -0.969742138    -0.089222140     0.003343493    N.am   1  noname    0.110112
    6   C6        -0.925057088     1.323736504     0.305180882     C.3   1  noname   -0.620077
    7   C7        -2.189560133    -0.523071690    -0.648016428     C.3   1  noname   -0.533383
    8   H8         3.262767000     0.348906084     0.201736214       H   1  noname    0.105656
    9   H9         1.909726691     1.022503819    -0.687666181       H   1  noname    0.105943
   10   H10        2.491386898    -0.590152360    -1.065602863       H   1  noname    0.138606
   11   H11        1.807332749    -1.405821456     1.181117458       H   1  noname    0.088027
   12   H12        1.194516973     0.173031869     1.601384432       H   1  noname    0.053862
   13   H13       -1.759190576     1.592021653     0.944755246       H   1  noname    0.182208
   14   H14       -0.015688532     1.599999123     0.809650369       H   1  noname    0.210855
   15   H15       -0.997951021     1.914293639    -0.605231383       H   1  noname    0.191186
   16   H16       -3.046610945    -0.232242686    -0.049390919       H   1  noname    0.165284
   17   H17       -2.176923134    -1.593245687    -0.759665593       H   1  noname    0.200695
   18   H18       -2.288223432    -0.064329851    -1.628604511       H   1  noname    0.171404


@<TRIPOS>BOND
    1      1      2    1
    2      2      3    1
    3      3      4    2
    4      3      5    am
    5      5      6    1
    6      5      7    1
    7      1      8    1
    8      1      9    1
    9      1     10    1
   10      2     11    1
   11      2     12    1
   12      6     13    1
   13      6     14    1
   14      6     15    1
   15      7     16    1
   16      7     17    1
   17      7     18    1
#
#	File Created by: Spartan'20 Export
#

@<TRIPOS>MOLECULE
M0155
44 45
SMALL
USER_CHARGES


@<TRIPOS>ATOM
    1   C1        -1.340481204     4.159573942     0.565455482     C.3   1  noname   -0.654788
    2   C2        -1.485701036     2.655119250     0.360846789     C.3   1  noname   -0.004025
    3   C3        -0.129809477     1.959029150     0.254018878     C.2   1  noname    0.841855
    4   O4         0.875477420     2.622600107     0.296666193     O.2   1  noname   -0.634267
    5   N5        -0.086201855     0.605424023     0.120906951    N.am   1  noname   -1.202024
    6   C6         1.228704722    -0.054849588     0.024190943     C.3   1  noname    1.038980
    7   C7         2.033374722     0.337605705    -1.221533693     C.3   1  noname   -0.383405
    8   C8         3.229862238    -0.615060147    -1.408711978     C.3   1  noname   -0.197195
    9   C9         3.874054242    -1.031754478    -0.066906601     C.3   1  noname   -0.171003
   10   C10        3.580519538    -0.007347211     1.029676982     C.3   1  noname   -0.148379
   11   C11        2.072711372     0.084618289     1.314533693     C.3   1  noname   -0.407344
   12   C12       -1.282513054    -0.233316096     0.008214644     C.3   1  noname    0.847483
   13   C13       -1.398919191    -0.959756339    -1.338707907     C.3   1  noname   -0.299652
   14   C14       -2.802385154    -1.581090960    -1.498134473     C.3   1  noname   -0.202764
   15   C15       -3.406150012    -2.043283403    -0.154964700     C.3   1  noname   -0.182399
   16   C16       -2.308456806    -2.431702579     0.835074903     C.3   1  noname   -0.167311
   17   C17       -1.417409411    -1.224871023     1.185289909     C.3   1  noname   -0.279810
   18   H18       -0.792294756     4.379112424     1.472392191       H   1  noname    0.183297
   19   H19       -2.322157520     4.617376738     0.636363828       H   1  noname    0.165051
   20   H20       -0.806274456     4.615379870    -0.257466636       H   1  noname    0.181433
   21   H21       -2.049642226     2.223612685     1.182502729       H   1  noname    0.056634
   22   H22       -2.059506271     2.461337266    -0.541054638       H   1  noname    0.062181
   23   H23        0.999926498    -1.105706160    -0.091552082       H   1  noname   -0.092618
   24   H24        2.372951654     1.358280348    -1.125714161       H   1  noname    0.145729
   25   H25        1.392665471     0.298839383    -2.097157896       H   1  noname    0.075482
   26   H26        2.913729265    -1.504348998    -1.948551677       H   1  noname    0.060427
   27   H27        3.968756002    -0.126061904    -2.036843769       H   1  noname    0.103799
   28   H28        4.944634895    -1.161643522    -0.191907488       H   1  noname    0.074645
   29   H29        3.487308963    -1.999491302     0.246302647       H   1  noname    0.068331
   30   H30        3.952607184     0.965778266     0.722650087       H   1  noname    0.097673
   31   H31        4.109171750    -0.264686442     1.942741837       H   1  noname    0.077593
   32   H32        1.786214760    -0.706681347     2.003424260       H   1  noname    0.074985
   33   H33        1.855808630     1.023574466     1.799619974       H   1  noname    0.134708
   34   H34       -2.131037920     0.427195863     0.055777268       H   1  noname   -0.071573
   35   H35       -0.643937257    -1.736147881    -1.412954937       H   1  noname    0.087070
   36   H36       -1.206109552    -0.262728566    -2.147151111       H   1  noname    0.080814
   37   H37       -2.737782355    -2.422884826    -2.180350210       H   1  noname    0.102636
   38   H38       -3.469981737    -0.862725237    -1.964755874       H   1  noname    0.074648
   39   H39       -4.007200419    -1.247023519     0.277906538       H   1  noname    0.077501
   40   H40       -4.082498200    -2.875820767    -0.319661537       H   1  noname    0.084185
   41   H41       -1.702702662    -3.221032898     0.397000597       H   1  noname    0.090892
   42   H42       -2.738932275    -2.846490517     1.740911012       H   1  noname    0.082412
   43   H43       -1.828736219    -0.690582045     2.036982503       H   1  noname    0.066382
   44   H44       -0.441658304    -1.577370021     1.494630526       H   1  noname    0.061729


@<TRIPOS>BOND
    1      1      2    1
    2      2      3    1
    3      3      4    2
    4      3      5    am
    5      5      6    1
    6      6      7    1
    7      7      8    1
    8      8      9    1
    9      9     10    1
   10     10     11    1
   11      5     12    1
   12     12     13    1
   13     13     14    1
   14     14     15    1
   15     15     16    1
   16     16     17    1
   17     11      6    1
   18     17     12    1
   19      1     18    1
   20      1     19    1
   21      1     20    1
   22      2     21    1
   23      2     22    1
   24      6     23    1
   25      7     24    1
   26      7     25    1
   27      8     26    1
   28      8     27    1
   29      9     28    1
   30      9     29    1
   31     10     30    1
   32     10     31    1
   33     11     32    1
   34     11     33    1
   35     12     34    1
   36     13     35    1
   37     13     36    1
   38     14     37    1
   39     14     38    1
   40     15     39    1
   41     15     40    1
   42     16     41    1
   43     16     42    1
   44     17     43    1
   45     17     44    1
#
#	File Created by: Spartan'20 Export
#

@<TRIPOS>MOLECULE
M0156
15 14
SMALL
USER_CHARGES


@<TRIPOS>ATOM
    1   C1        -2.420103357    -0.185400603     0.030607711     C.3   1  noname   -0.451461
    2   C2        -1.061112381    -0.053858350     0.709755411     C.3   1  noname   -0.151318
    3   C3         0.097518490    -0.130786264    -0.272119534     C.2   1  noname    0.735990
    4   O4        -0.020297225    -0.570732964    -1.382716119     O.2   1  noname   -0.580350
    5   N5         1.277823305     0.337086807     0.202334137    N.am   1  noname   -0.587773
    6   C6         2.510728249     0.188975074    -0.538387005     C.3   1  noname   -0.239415
    7   H7        -3.213847307    -0.161193293     0.770159073       H   1  noname    0.131200
    8   H8        -2.486728756    -1.115263632    -0.518659508       H   1  noname    0.140679
    9   H9        -2.583470240     0.624710652    -0.670926472       H   1  noname    0.138250
   10   H10       -0.997288082     0.877201778     1.266432578       H   1  noname    0.063785
   11   H11       -0.924566687    -0.854804745     1.434151335       H   1  noname    0.082184
   12   H12        1.338223981     0.565227242     1.167966070       H   1  noname    0.326395
   13   H13        2.914109534    -0.815577787    -0.462628745       H   1  noname    0.117007
   14   H14        2.328711136     0.403905640    -1.580663085       H   1  noname    0.148554
   15   H15        3.240299338     0.890510445    -0.155305847       H   1  noname    0.126273


@<TRIPOS>BOND
    1      1      2    1
    2      2      3    1
    3      3      4    2
    4      3      5    am
    5      5      6    1
    6      1      7    1
    7      1      8    1
    8      1      9    1
    9      2     10    1
   10      2     11    1
   11      5     12    1
   12      6     13    1
   13      6     14    1
   14      6     15    1
#
#	File Created by: Spartan'20 Export
#

@<TRIPOS>MOLECULE
M0157
17 16
SMALL
USER_CHARGES


@<TRIPOS>ATOM
    1   C1        -2.859949007     0.150954797    -0.326518885     C.3   1  noname   -0.534916
    2   C2        -1.672017772    -0.349890581     0.485272869     C.3   1  noname   -0.168511
    3   C3        -0.364996194     0.288314272     0.079613188     C.2   1  noname    0.896695
    4   O4        -0.235773379     1.090103868    -0.789092711     O.2   1  noname   -0.594233
    5   O5         0.636540132    -0.160515477     0.823710200     O.3   1  noname   -0.604800
    6   C6         1.946664991     0.342367257     0.573815966     C.3   1  noname    0.348858
    7   C7         2.626080235    -0.411835158    -0.554175665     C.3   1  noname   -0.544304
    8   H8        -3.770722380    -0.337607453     0.003135710       H   1  noname    0.157727
    9   H9        -2.725159304    -0.053874497    -1.381614761       H   1  noname    0.153008
   10   H10       -2.986347594     1.220888376    -0.213326509       H   1  noname    0.153480
   11   H11       -1.551359673    -1.424804015     0.387300044       H   1  noname    0.105799
   12   H12       -1.810068137    -0.162827393     1.545877588       H   1  noname    0.095603
   13   H13        2.473978643     0.201428659     1.506417034       H   1  noname    0.045971
   14   H14        1.886581378     1.398513086     0.359119669       H   1  noname    0.033081
   15   H15        2.103909007    -0.258922937    -1.490336677       H   1  noname    0.166829
   16   H16        3.645802136    -0.057946267    -0.670949062       H   1  noname    0.128034
   17   H17        2.656836918    -1.474346536    -0.338247998       H   1  noname    0.161680


@<TRIPOS>BOND
    1      1      2    1
    2      2      3    1
    3      3      4    2
    4      3      5    1
    5      5      6    1
    6      6      7    1
    7      1      8    1
    8      1      9    1
    9      1     10    1
   10      2     11    1
   11      2     12    1
   12      6     13    1
   13      6     14    1
   14      7     15    1
   15      7     16    1
   16      7     17    1
#
#	File Created by: Spartan'20 Export
#

@<TRIPOS>MOLECULE
M0158
16 15
SMALL
USER_CHARGES


@<TRIPOS>ATOM
    1   C1        -2.865673340    -0.275524766    -0.019923964     C.3   1  noname   -0.634403
    2   C2        -1.417934798     0.013616505    -0.413927193     C.3   1  noname   -0.001944
    3   C3        -0.434458182    -0.310605319     0.719022841     C.3   1  noname    0.191722
    4   C4         0.966574921    -0.038277710     0.356092816     C.1   1  noname   -0.446502
    5   C5         2.093833729     0.185766096     0.051450530     C.1   1  noname    0.141489
    6   C6         3.489522954     0.462684491    -0.316113843     C.3   1  noname   -0.552388
    7   H7        -3.165316867     0.316235912     0.840673627       H   1  noname    0.156641
    8   H8        -3.544486162    -0.041835283    -0.834062516       H   1  noname    0.175886
    9   H9        -3.003005529    -1.322730277     0.234700052       H   1  noname    0.155753
   10   H10       -1.151381161    -0.566408351    -1.292114169       H   1  noname    0.071217
   11   H11       -1.311142243     1.058774095    -0.687822204       H   1  noname    0.071587
   12   H12       -0.691059283     0.268565593     1.601622428       H   1  noname    0.056515
   13   H13       -0.530605408    -1.356318289     0.997643495       H   1  noname    0.057247
   14   H14        3.544564001     1.278977466    -1.027998489       H   1  noname    0.181675
   15   H15        4.070634374     0.737263343     0.557649380       H   1  noname    0.189739
   16   H16        3.949932994    -0.410183507    -0.766892792       H   1  noname    0.185768


@<TRIPOS>BOND
    1      1      2    1
    2      2      3    1
    3      3      4    1
    4      4      5    3
    5      5      6    1
    6      1      7    1
    7      1      8    1
    8      1      9    1
    9      2     10    1
   10      2     11    1
   11      3     12    1
   12      3     13    1
   13      6     14    1
   14      6     15    1
   15      6     16    1
#
#	File Created by: Spartan'20 Export
#

@<TRIPOS>MOLECULE
M0159
16 15
SMALL
USER_CHARGES


@<TRIPOS>ATOM
    1   C1        -2.210638530    -0.553729270     0.553006297     C.3   1  noname   -0.669034
    2   C2        -0.762325914    -0.663890895     0.077905685     C.3   1  noname    0.187877
    3   C3        -0.223623687     0.656041581    -0.474527293     C.3   1  noname   -0.128320
    4   C4         1.227213379     0.575915054    -0.973302886     C.3   1  noname   -0.316338
    5   C5         2.201627295     0.296251107     0.095018825     C.1   1  noname    0.104914
    6   C6         2.984484308     0.078375376     0.961068818     C.1   1  noname   -0.524801
    7   H7        -2.869632725    -0.251555773    -0.256254495       H   1  noname    0.164031
    8   H8        -2.570609599    -1.503921180     0.934685683       H   1  noname    0.166742
    9   H9        -2.307180880     0.179690301     1.348528394       H   1  noname    0.165040
   10   H10       -0.691688114    -1.429393392    -0.692276285       H   1  noname    0.021290
   11   H11       -0.134388271    -0.994802700     0.899362630       H   1  noname    0.037631
   12   H12       -0.844807174     0.979269050    -1.306661161       H   1  noname    0.067968
   13   H13       -0.294140566     1.428505618     0.286274753       H   1  noname    0.098963
   14   H14        1.313043944    -0.193947766    -1.735042320       H   1  noname    0.140938
   15   H15        1.499950547     1.513598076    -1.447805986       H   1  noname    0.154038
   16   H16        3.682715989    -0.116405190     1.730019343       H   1  noname    0.329062


@<TRIPOS>BOND
    1      1      2    1
    2      2      3    1
    3      3      4    1
    4      4      5    1
    5      5      6    3
    6      1      7    1
    7      1      8    1
    8      1      9    1
    9      2     10    1
   10      2     11    1
   11      3     12    1
   12      3     13    1
   13      4     14    1
   14      4     15    1
   15      6     16    1
#
#	File Created by: Spartan'20 Export
#

@<TRIPOS>MOLECULE
M0160
21 20
SMALL
USER_CHARGES


@<TRIPOS>ATOM
    1   C1        -3.020764246     0.029084941    -0.122050132     C.3   1  noname   -0.507123
    2   C2        -2.027148815     0.391441141    -1.227575193     C.3   1  noname    0.063768
    3   C3        -0.670896028     0.896349721    -0.721799535     C.3   1  noname   -0.264808
    4   C4         0.152907805    -0.145802991     0.038834515     C.3   1  noname    0.026877
    5   C5         1.542431770     0.372635077     0.432815196     C.3   1  noname   -0.212870
    6   C6         2.338361030    -0.636782403     1.215464641     C.2   1  noname   -0.069762
    7   C7         3.492249206    -1.155277258     0.842088469     C.2   1  noname   -0.528375
    8   H8        -2.675487437    -0.807726799     0.476096160       H   1  noname    0.127232
    9   H9        -3.184127967     0.869953370     0.547341230       H   1  noname    0.141311
   10   H10       -3.982273948    -0.247678053    -0.543610841       H   1  noname    0.129661
   11   H11       -2.469269184     1.161390759    -1.855481259       H   1  noname    0.039050
   12   H12       -1.871267097    -0.472017970    -1.871363533       H   1  noname    0.039381
   13   H13       -0.091820593     1.243943826    -1.574891883       H   1  noname    0.064275
   14   H14       -0.827295691     1.766679932    -0.086195207       H   1  noname    0.093986
   15   H15        0.269102411    -1.036638299    -0.574381486       H   1  noname    0.055127
   16   H16       -0.376743747    -0.456899083     0.935536784       H   1  noname    0.059489
   17   H17        2.093598503     0.657526877    -0.459239812       H   1  noname    0.116364
   18   H18        1.425886880     1.275767524     1.030731405       H   1  noname    0.091628
   19   H19        1.905036644    -0.951289775     2.153630530       H   1  noname    0.126789
   20   H20        3.967896689    -0.876024481    -0.083295949       H   1  noname    0.210131
   21   H21        4.009623813    -1.878636058     1.447345899       H   1  noname    0.197869


@<TRIPOS>BOND
    1      1      2    1
    2      2      3    1
    3      3      4    1
    4      4      5    1
    5      5      6    1
    6      6      7    2
    7      1      8    1
    8      1      9    1
    9      1     10    1
   10      2     11    1
   11      2     12    1
   12      3     13    1
   13      3     14    1
   14      4     15    1
   15      4     16    1
   16      5     17    1
   17      5     18    1
   18      6     19    1
   19      7     20    1
   20      7     21    1
#
#	File Created by: Spartan'20 Export
#

@<TRIPOS>MOLECULE
M0161
17 16
SMALL
USER_CHARGES


@<TRIPOS>ATOM
    1   C1        -2.089877556     0.501664385    -0.626804574     C.3   1  noname   -0.446725
    2   C2        -1.328316588    -0.779198482    -0.280555528     C.3   1  noname   -0.045445
    3   C3         0.197274776    -0.649610264    -0.347847691     C.3   1  noname   -0.140348
    4   C4         0.798162461     0.291316322     0.699238341     C.3   1  noname   -0.024532
    5   C5         2.311452190     0.339228699     0.648072875     C.3   1  noname   -0.103010
    6   F6         2.723246455     0.807399476    -0.576649344       F   1  noname   -0.237174
    7   H7        -3.160429757     0.321937492    -0.635437778       H   1  noname    0.122559
    8   H8        -1.808387133     0.868802395    -1.609846729       H   1  noname    0.130884
    9   H9        -1.900128616     1.294688574     0.089004089       H   1  noname    0.114196
   10   H10       -1.634961298    -1.563342674    -0.968096662       H   1  noname    0.056170
   11   H11       -1.619403795    -1.116478244     0.712440391       H   1  noname    0.057584
   12   H12        0.635069190    -1.637758901    -0.218803964       H   1  noname    0.050313
   13   H13        0.490826035    -0.311426165    -1.337058227       H   1  noname    0.100387
   14   H14        0.506128708    -0.027839027     1.698369502       H   1  noname    0.042742
   15   H15        0.422245055     1.300812156     0.567302656       H   1  noname    0.090447
   16   H16        2.745027158    -0.644478162     0.783566123       H   1  noname    0.121785
   17   H17        2.712072716     1.004282419     1.403106520       H   1  noname    0.110166


@<TRIPOS>BOND
    1      1      2    1
    2      2      3    1
    3      3      4    1
    4      4      5    1
    5      5      6    1
    6      1      7    1
    7      1      8    1
    8      1      9    1
    9      2     10    1
   10      2     11    1
   11      3     12    1
   12      3     13    1
   13      4     14    1
   14      4     15    1
   15      5     16    1
   16      5     17    1
#
#	File Created by: Spartan'20 Export
#

@<TRIPOS>MOLECULE
M0162
37 36
SMALL
USER_CHARGES


@<TRIPOS>ATOM
    1   C1         3.774615436     1.523542900     0.242912366     C.3   1  noname   -0.523051
    2   C2         3.395112787     0.642507991    -0.948706645     C.3   1  noname    0.167983
    3   C3         2.844255158    -0.738221077    -0.565358087     C.3   1  noname   -0.378538
    4   C4         1.543262958    -0.751627609     0.248398835     C.3   1  noname   -0.127761
    5   C5         0.337940833    -0.159458395    -0.488728381     C.3   1  noname    0.237461
    6   N6        -0.897898935    -0.290590821     0.264274524     N.3   1  noname   -0.872168
    7   C7        -1.536265375    -1.601611100     0.177065007     C.3   1  noname    0.817372
    8   C8        -2.512284502    -1.787077284    -0.995117713     C.3   1  noname   -0.792195
    9   C9        -2.194244232    -1.992841363     1.503552393     C.3   1  noname   -0.864236
   10   C10       -1.759696724     0.887051174     0.341780200     C.3   1  noname    0.964459
   11   C11       -2.057793127     1.592788227    -0.992738360     C.3   1  noname   -0.896692
   12   C12       -1.203317123     1.886449670     1.360238106     C.3   1  noname   -0.836003
   13   H13        4.232822168     2.449135946    -0.091961017       H   1  noname    0.124885
   14   H14        2.911720164     1.787326647     0.845823356       H   1  noname    0.140114
   15   H15        4.486052482     1.018154919     0.890240872       H   1  noname    0.141686
   16   H16        4.277289881     0.492786711    -1.566820354       H   1  noname    0.023040
   17   H17        2.681193044     1.170691315    -1.575655932       H   1  noname   -0.004381
   18   H18        3.608379497    -1.267308209     0.000517906       H   1  noname    0.124501
   19   H19        2.693620984    -1.314794354    -1.476484143       H   1  noname    0.090138
   20   H20        1.329872603    -1.781334615     0.520949355       H   1  noname    0.066815
   21   H21        1.668606405    -0.217606469     1.185441067       H   1  noname    0.085922
   22   H22        0.525807651     0.890752570    -0.661734968       H   1  noname    0.082833
   23   H23        0.258356676    -0.614982395    -1.478995646       H   1  noname    0.001275
   24   H24       -0.728468785    -2.307134540     0.019421032       H   1  noname   -0.008904
   25   H25       -3.402967790    -1.177042608    -0.880701649       H   1  noname    0.188208
   26   H26       -2.833384879    -2.823247085    -1.053962695       H   1  noname    0.171745
   27   H27       -2.047353156    -1.531750693    -1.941969651       H   1  noname    0.178796
   28   H28       -2.544746810    -3.020338615     1.465297135       H   1  noname    0.195980
   29   H29       -3.051403830    -1.368646605     1.735661992       H   1  noname    0.212190
   30   H30       -1.482462670    -1.901921351     2.316040328       H   1  noname    0.186563
   31   H31       -2.709700752     0.542484171     0.731307481       H   1  noname   -0.047761
   32   H32       -2.436564961     0.904845662    -1.738048434       H   1  noname    0.200418
   33   H33       -2.806410565     2.365277754    -0.842336051       H   1  noname    0.192448
   34   H34       -1.177510484     2.076658697    -1.402681796       H   1  noname    0.194254
   35   H35       -1.072305600     1.407279121     2.323594383       H   1  noname    0.180897
   36   H36       -0.239633049     2.277628878     1.047443608       H   1  noname    0.203677
   37   H37       -1.874495381     2.732172833     1.482041577       H   1  noname    0.178031


@<TRIPOS>BOND
    1      1      2    1
    2      2      3    1
    3      3      4    1
    4      4      5    1
    5      5      6    1
    6      6      7    1
    7      7      8    1
    8      7      9    1
    9      6     10    1
   10     10     11    1
   11     10     12    1
   12      1     13    1
   13      1     14    1
   14      1     15    1
   15      2     16    1
   16      2     17    1
   17      3     18    1
   18      3     19    1
   19      4     20    1
   20      4     21    1
   21      5     22    1
   22      5     23    1
   23      7     24    1
   24      8     25    1
   25      8     26    1
   26      8     27    1
   27      9     28    1
   28      9     29    1
   29      9     30    1
   30     10     31    1
   31     11     32    1
   32     11     33    1
   33     11     34    1
   34     12     35    1
   35     12     36    1
   36     12     37    1
#
#	File Created by: Spartan'20 Export
#

@<TRIPOS>MOLECULE
M0163
16 15
SMALL
USER_CHARGES


@<TRIPOS>ATOM
    1   C1         2.117923207    -0.409708611     0.622772097     C.3   1  noname   -0.700601
    2   C2         0.659530410     0.046083222     0.668265438     C.3   1  noname    0.316819
    3   C3         0.025595144     0.152151966    -0.720325435     C.3   1  noname   -0.398282
    4   C4        -1.425833073     0.645911956    -0.716500990     C.3   1  noname    0.300000
    5   N5        -2.404550896    -0.207851209    -0.060808256     N.3   1  noname   -1.020566
    6   H6         2.540358171    -0.476693698     1.620631141       H   1  noname    0.161882
    7   H7         2.208717400    -1.387900263     0.158789335       H   1  noname    0.171458
    8   H8         2.727889730     0.283878904     0.050836208       H   1  noname    0.178590
    9   H9         0.598663366     1.012264399     1.165753299       H   1  noname   -0.004408
   10   H10        0.091184982    -0.650034771     1.280363890       H   1  noname   -0.010395
   11   H11        0.071112764    -0.818207264    -1.214111974       H   1  noname    0.113953
   12   H12        0.618820300     0.831946656    -1.329985558       H   1  noname    0.084617
   13   H13       -1.752244911     0.785328290    -1.742334735       H   1  noname    0.030114
   14   H14       -1.475119861     1.623966386    -0.246191587       H   1  noname    0.025628
   15   H15       -2.393098578    -1.130510492    -0.453797701       H   1  noname    0.383401
   16   H16       -2.208948154    -0.300625472     0.916644828       H   1  noname    0.367789


@<TRIPOS>BOND
    1      1      2    1
    2      2      3    1
    3      3      4    1
    4      4      5    1
    5      1      6    1
    6      1      7    1
    7      1      8    1
    8      2      9    1
    9      2     10    1
   10      3     11    1
   11      3     12    1
   12      4     13    1
   13      4     14    1
   14      5     15    1
   15      5     16    1
#
#	File Created by: Spartan'20 Export
#

@<TRIPOS>MOLECULE
M0164
26 26
SMALL
USER_CHARGES


@<TRIPOS>ATOM
    1   C1         3.986454405     0.717177028    -0.093733207     C.3   1  noname   -0.587047
    2   C2         2.862931656    -0.281079508     0.183094785     C.3   1  noname    0.043781
    3   C3         1.476928739     0.275215217    -0.148929009     C.3   1  noname   -0.033279
    4   C4         0.359781745    -0.723024680     0.147175163     C.3   1  noname   -0.367236
    5   N5        -0.944090337    -0.267098212    -0.283494915     N.3   1  noname   -0.254083
    6   C6        -1.972828811    -1.288459881    -0.221304394     C.3   1  noname   -0.090445
    7   C7        -3.268208509    -0.517622206    -0.490769625     C.3   1  noname   -0.161780
    8   C8        -2.962938574     0.914721525     0.008941607     C.3   1  noname   -0.236408
    9   C9        -1.491501705     0.862903097     0.446768815     C.3   1  noname   -0.012198
   10   H10        3.864713487     1.618892038     0.500225561       H   1  noname    0.146032
   11   H11        4.957325191     0.293106249     0.144466919       H   1  noname    0.155796
   12   H12        4.000592208     1.010843208    -1.139686502       H   1  noname    0.149324
   13   H13        3.036764608    -1.186676950    -0.394236050       H   1  noname    0.047491
   14   H14        2.894468925    -0.576225886     1.229842858       H   1  noname    0.043892
   15   H15        1.319549580     1.190064650     0.416855517       H   1  noname    0.077791
   16   H16        1.427765429     0.546222364    -1.200251888       H   1  noname    0.077446
   17   H17        0.572871395    -1.648032021    -0.381039376       H   1  noname    0.158547
   18   H18        0.359540419    -0.967096203     1.216481766       H   1  noname    0.121789
   19   H19       -2.008935002    -1.760780054     0.766787990       H   1  noname    0.088334
   20   H20       -1.781942817    -2.068972872    -0.949367394       H   1  noname    0.098163
   21   H21       -3.485357420    -0.510206341    -1.552348891       H   1  noname    0.093514
   22   H22       -4.117803948    -0.964660011     0.012758355       H   1  noname    0.083871
   23   H23       -3.607861413     1.213877635     0.826751092       H   1  noname    0.095005
   24   H24       -3.098775981     1.634996991    -0.788504347       H   1  noname    0.104582
   25   H25       -1.420914999     0.706088174     1.528743104       H   1  noname    0.083983
   26   H26       -0.958528271     1.775826648     0.214772066       H   1  noname    0.073134


@<TRIPOS>BOND
    1      1      2    1
    2      2      3    1
    3      3      4    1
    4      4      5    1
    5      5      6    1
    6      6      7    1
    7      7      8    1
    8      8      9    1
    9      9      5    1
   10      1     10    1
   11      1     11    1
   12      1     12    1
   13      2     13    1
   14      2     14    1
   15      3     15    1
   16      3     16    1
   17      4     17    1
   18      4     18    1
   19      6     19    1
   20      6     20    1
   21      7     21    1
   22      7     22    1
   23      8     23    1
   24      8     24    1
   25      9     25    1
   26      9     26    1
#
#	File Created by: Spartan'20 Export
#

@<TRIPOS>MOLECULE
M0165
27 26
SMALL
USER_CHARGES


@<TRIPOS>ATOM
    1   C1        -4.069941127    -1.394552537     0.016312466     C.3   1  noname   -0.434060
    2   C2        -3.552657544    -0.003929189     0.393104745     C.3   1  noname   -0.089027
    3   C3        -2.073947554     0.040620703     0.797010103     C.3   1  noname   -0.115013
    4   C4        -1.111835086    -0.287936263    -0.342194306     C.3   1  noname    0.110691
    5   O5         0.231491170    -0.250162649     0.050032178     O.3   1  noname   -0.422650
    6   C6         0.831003407     1.012210089     0.106342819     C.3   1  noname   -0.027073
    7   C7         2.316318984     0.839746992     0.379877956     C.3   1  noname   -0.279250
    8   C8         3.062240641     0.095055118    -0.727972849     C.3   1  noname    0.240705
    9   C9         4.553420530    -0.060919150    -0.432016958     C.3   1  noname   -0.673606
   10   H10       -3.595696098    -1.778725044    -0.880952989       H   1  noname    0.117410
   11   H11       -3.890349753    -2.107348862     0.816309190       H   1  noname    0.126965
   12   H12       -5.139094438    -1.368690949    -0.168533574       H   1  noname    0.122713
   13   H13       -4.143694900     0.373340899     1.223052212       H   1  noname    0.065612
   14   H14       -3.723805379     0.682301080    -0.434240197       H   1  noname    0.064270
   15   H15       -1.890543960    -0.654787405     1.611874478       H   1  noname    0.088906
   16   H16       -1.849562727     1.031872683     1.179688585       H   1  noname    0.050861
   17   H17       -1.283270407    -1.294755080    -0.700330173       H   1  noname    0.082452
   18   H18       -1.276632457     0.388867491    -1.180586032       H   1  noname    0.045618
   19   H19        0.382575745     1.619093889     0.889814928       H   1  noname    0.093822
   20   H20        0.680766235     1.536657680    -0.837814341       H   1  noname    0.080805
   21   H21        2.433274822     0.310490787     1.321883784       H   1  noname    0.127575
   22   H22        2.752821686     1.827617185     0.516950079       H   1  noname    0.089762
   23   H23        2.611471768    -0.881443544    -0.864567061       H   1  noname    0.029817
   24   H24        2.935297636     0.630084722    -1.667379247       H   1  noname    0.009750
   25   H25        5.059319701    -0.591824194    -1.232669288       H   1  noname    0.159519
   26   H26        5.037140135     0.905695818    -0.319500000       H   1  noname    0.165910
   27   H27        4.713888969    -0.618580270     0.486503494       H   1  noname    0.167517


@<TRIPOS>BOND
    1      1      2    1
    2      2      3    1
    3      3      4    1
    4      4      5    1
    5      5      6    1
    6      6      7    1
    7      7      8    1
    8      8      9    1
    9      1     10    1
   10      1     11    1
   11      1     12    1
   12      2     13    1
   13      2     14    1
   14      3     15    1
   15      3     16    1
   16      4     17    1
   17      4     18    1
   18      6     19    1
   19      6     20    1
   20      7     21    1
   21      7     22    1
   22      8     23    1
   23      8     24    1
   24      9     25    1
   25      9     26    1
   26      9     27    1
#
#	File Created by: Spartan'20 Export
#

@<TRIPOS>MOLECULE
M0166
23 23
SMALL
USER_CHARGES


@<TRIPOS>ATOM
    1   C1         3.457616536     0.442059276    -0.059487692     C.3   1  noname   -0.445621
    2   C2         2.661680292    -0.828672151     0.243200251     C.3   1  noname   -0.004889
    3   C3         1.185114638    -0.768540625    -0.162051996     C.3   1  noname    0.050984
    4   C4         0.353873240     0.242450284     0.642238302     C.3   1  noname   -0.581262
    5   C5        -1.112309898     0.185671025     0.283217711     C.2   1  noname    0.770297
    6   C6        -1.709324490     1.166226983    -0.501069767     C.2   1  noname   -0.601220
    7   C7        -3.050874713     1.049698894    -0.816230019     C.2   1  noname    0.209032
    8   C8        -3.757342271    -0.039757615    -0.339706320     C.2   1  noname   -0.491383
    9   C9        -3.072834963    -0.961325575     0.433899530     C.2   1  noname    0.383240
   10   N10       -1.793282695    -0.856921197     0.738150908     N.2   1  noname   -0.677619
   11   H11        3.397700309     0.697847506    -1.113830651       H   1  noname    0.120358
   12   H12        4.506253789     0.308306458     0.187377425       H   1  noname    0.116419
   13   H13        3.097278721     1.293411939     0.508626083       H   1  noname    0.126146
   14   H14        2.733467868    -1.057711421     1.304123353       H   1  noname    0.057046
   15   H15        3.125175334    -1.662238587    -0.278378694       H   1  noname    0.027122
   16   H16        0.741164683    -1.749746939    -0.030044275       H   1  noname    0.033212
   17   H17        1.109698701    -0.532899419    -1.222054068       H   1  noname    0.043688
   18   H18        0.724664407     1.249672478     0.482718169       H   1  noname    0.160029
   19   H19        0.453188599     0.023268088     1.701008748       H   1  noname    0.161706
   20   H20       -1.132254603     2.001557697    -0.853185541       H   1  noname    0.201201
   21   H21       -3.534985232     1.796062355    -1.420845478       H   1  noname    0.099200
   22   H22       -4.801003493    -0.174199687    -0.555449061       H   1  noname    0.182893
   23   H23       -3.582664761    -1.824219767     0.827773082       H   1  noname    0.059422


@<TRIPOS>BOND
    1      1      2    1
    2      2      3    1
    3      3      4    1
    4      4      5    1
    5      5      6    2
    6      6      7    1
    7      7      8    2
    8      8      9    1
    9      9     10    2
   10     10      5    1
   11      1     11    1
   12      1     12    1
   13      1     13    1
   14      2     14    1
   15      2     15    1
   16      3     16    1
   17      3     17    1
   18      4     18    1
   19      4     19    1
   20      6     20    1
   21      7     21    1
   22      8     22    1
   23      9     23    1
#
#	File Created by: Spartan'20 Export
#

@<TRIPOS>MOLECULE
M0167
13 12
SMALL
USER_CHARGES


@<TRIPOS>ATOM
    1   C1        -1.473276488    -0.559406596    -0.168423455     C.3   1  noname   -0.402052
    2   C2        -0.425961954     0.467198689    -0.596520779     C.3   1  noname   -0.024198
    3   C3         0.730058067     0.612061026     0.391025705     C.3   1  noname    0.269638
    4   N4         1.483187795    -0.628841975     0.505661716     N.3   1  noname   -0.952049
    5   H5        -1.027322505    -1.536787426    -0.033988325       H   1  noname    0.119977
    6   H6        -2.262326169    -0.641072970    -0.910127602       H   1  noname    0.103311
    7   H7        -1.933119758    -0.271484925     0.773113358       H   1  noname    0.107746
    8   H8        -0.894746785     1.439941793    -0.722453949       H   1  noname    0.014487
    9   H9        -0.025523934     0.194880318    -1.571531139       H   1  noname    0.059811
   10   H10        0.333486485     0.849402528     1.373089037       H   1  noname    0.041325
   11   H11        1.350856504     1.457799157     0.090154149       H   1  noname   -0.048037
   12   H12        1.964099472    -0.826511564    -0.351327625       H   1  noname    0.357429
   13   H13        2.180589270    -0.557178055     1.221328909       H   1  noname    0.352611


@<TRIPOS>BOND
    1      1      2    1
    2      2      3    1
    3      3      4    1
    4      1      5    1
    5      1      6    1
    6      1      7    1
    7      2      8    1
    8      2      9    1
    9      3     10    1
   10      3     11    1
   11      4     12    1
   12      4     13    1
#
#	File Created by: Spartan'20 Export
#

@<TRIPOS>MOLECULE
M0168
31 30
SMALL
USER_CHARGES


@<TRIPOS>ATOM
    1   C1         2.905784514    -2.705201091    -0.135318418     C.3   1  noname   -0.689184
    2   C2         2.254473487    -1.372321601    -0.504776677     C.3   1  noname    0.032438
    3   C3         0.793392241    -1.296577309    -0.059800935     C.3   1  noname    0.211882
    4   N4         0.155423761    -0.039977275    -0.425232102     N.3   1  noname   -0.734806
    5   C5        -1.234892630    -0.178393373    -0.828925805     C.3   1  noname    0.091732
    6   C6        -2.245513626    -0.582823195     0.253506086     C.3   1  noname    0.162740
    7   C7        -3.651054687    -0.759195702    -0.322067209     C.3   1  noname   -0.726829
    8   C8         0.434233280     1.030963266     0.517516166     C.3   1  noname    0.078286
    9   C9         0.162195709     2.430052354    -0.034782632     C.3   1  noname    0.121216
   10   C10        0.662951615     3.523369953     0.908979647     C.3   1  noname   -0.719841
   11   H11        2.905497471    -2.861068983     0.940315827       H   1  noname    0.168382
   12   H12        2.379911466    -3.541296627    -0.588984288       H   1  noname    0.166619
   13   H13        3.936725282    -2.743672969    -0.472837497       H   1  noname    0.183282
   14   H14        2.290902297    -1.223087090    -1.579741883       H   1  noname    0.059912
   15   H15        2.825154695    -0.560998091    -0.062405012       H   1  noname    0.064022
   16   H16        0.254657357    -2.105868584    -0.542165141       H   1  noname    0.063610
   17   H17        0.727999195    -1.486690736     1.015113670       H   1  noname    0.006801
   18   H18       -1.556541409     0.754820118    -1.277709813       H   1  noname    0.044783
   19   H19       -1.265626176    -0.914108673    -1.627350634       H   1  noname    0.072551
   20   H20       -1.929404815    -1.509694620     0.725244112       H   1  noname    0.012876
   21   H21       -2.273530038     0.167670702     1.038296918       H   1  noname    0.040912
   22   H22       -4.360532911    -1.041272796     0.449221367       H   1  noname    0.183054
   23   H23       -4.008217770     0.160613001    -0.777264221       H   1  noname    0.175761
   24   H24       -3.669044329    -1.531925025    -1.085436329       H   1  noname    0.173416
   25   H25       -0.104614496     0.900868654     1.460709531       H   1  noname    0.030977
   26   H26        1.487466330     0.975527816     0.767814613       H   1  noname    0.085212
   27   H27       -0.900646373     2.574505237    -0.204075240       H   1  noname    0.058883
   28   H28        0.648519276     2.519966864    -1.001318268       H   1  noname    0.046977
   29   H29        0.186975081     3.453320256     1.882948985       H   1  noname    0.174676
   30   H30        1.736152995     3.452166519     1.060496622       H   1  noname    0.176961
   31   H31        0.451203208     4.510329000     0.510028558       H   1  noname    0.182699


@<TRIPOS>BOND
    1      1      2    1
    2      2      3    1
    3      3      4    1
    4      4      5    1
    5      5      6    1
    6      6      7    1
    7      4      8    1
    8      8      9    1
    9      9     10    1
   10      1     11    1
   11      1     12    1
   12      1     13    1
   13      2     14    1
   14      2     15    1
   15      3     16    1
   16      3     17    1
   17      5     18    1
   18      5     19    1
   19      6     20    1
   20      6     21    1
   21      7     22    1
   22      7     23    1
   23      7     24    1
   24      8     25    1
   25      8     26    1
   26      9     27    1
   27      9     28    1
   28     10     29    1
   29     10     30    1
   30     10     31    1
#
#	File Created by: Spartan'20 Export
#

@<TRIPOS>MOLECULE
M0169
22 21
SMALL
USER_CHARGES


@<TRIPOS>ATOM
    1   C1         3.618703638     1.060447067     0.250086207     C.3   1  noname   -0.688065
    2   C2         2.165308510     0.800184235     0.644157652     C.3   1  noname    0.184112
    3   C3         1.506655090    -0.279701716    -0.212337660     C.3   1  noname    0.006455
    4   N4         0.162051145    -0.550514240     0.239585387     N.2   1  noname   -0.596655
    5   C5        -0.775171464    -0.424194422    -0.581785503     C.2   1  noname    0.416058
    6   N6        -2.084618449    -0.721965118    -0.309831209   N.pl3   1  noname   -0.144700
    7   C7        -3.106685848    -0.060406475    -1.086854780     C.3   1  noname   -0.451465
    8   C8        -2.436198005    -1.048612392     1.054036048     C.3   1  noname   -0.478710
    9   H9         3.697410915     1.378927939    -0.785827353       H   1  noname    0.165635
   10   H10        4.224206625     0.165704139     0.366662155       H   1  noname    0.168351
   11   H11        4.058513625     1.837923579     0.866669319       H   1  noname    0.169167
   12   H12        2.109133614     0.496828647     1.685196053       H   1  noname    0.030843
   13   H13        1.587957084     1.717291826     0.557601347       H   1  noname    0.028696
   14   H14        1.537000491     0.020121808    -1.263402546       H   1  noname    0.032254
   15   H15        2.087947588    -1.195460033    -0.132290542       H   1  noname    0.084700
   16   H16       -0.618575142    -0.094033321    -1.604764106       H   1  noname    0.063831
   17   H17       -3.364713053     0.922969378    -0.693131518       H   1  noname    0.166982
   18   H18       -2.775245987     0.060030500    -2.110785883       H   1  noname    0.144047
   19   H19       -4.005048205    -0.666350365    -1.097461944       H   1  noname    0.173366
   20   H20       -3.410610306    -1.522285830     1.061272445       H   1  noname    0.182127
   21   H21       -2.471641464    -0.166401968     1.691543818       H   1  noname    0.168764
   22   H22       -1.706380403    -1.730503239     1.461662613       H   1  noname    0.174207


@<TRIPOS>BOND
    1      1      2    1
    2      2      3    1
    3      3      4    1
    4      4      5    2
    5      5      6    1
    6      6      7    1
    7      6      8    1
    8      1      9    1
    9      1     10    1
   10      1     11    1
   11      2     12    1
   12      2     13    1
   13      3     14    1
   14      3     15    1
   15      5     16    1
   16      7     17    1
   17      7     18    1
   18      7     19    1
   19      8     20    1
   20      8     21    1
   21      8     22    1
#
#	File Created by: Spartan'20 Export
#

@<TRIPOS>MOLECULE
M0170
10 9
SMALL
USER_CHARGES


@<TRIPOS>ATOM
    1   C1        -0.213665697     0.000004060    -1.056703604     C.3   1  noname   -0.673352
    2   C2         0.613338341    -0.000000767     0.229401765     C.3   1  noname    0.573366
    3   N3        -0.152505988     0.000000977     1.466088877     N.3   1  noname   -1.112229
    4   H4        -0.852137364     0.878194485    -1.109436406       H   1  noname    0.158730
    5   H5        -0.852145491    -0.878180435    -1.109433912       H   1  noname    0.158730
    6   H6         0.425590997    -0.000000617    -1.935231255       H   1  noname    0.138781
    7   H7         1.263834818    -0.868581359     0.244367845       H   1  noname   -0.018636
    8   H8         1.263838774     0.868576710     0.244369525       H   1  noname   -0.018637
    9   H9        -0.748082214     0.804917217     1.513279654       H   1  noname    0.396624
   10   H10       -0.748066177    -0.804930271     1.513297510       H   1  noname    0.396622


@<TRIPOS>BOND
    1      1      2    1
    2      2      3    1
    3      1      4    1
    4      1      5    1
    5      1      6    1
    6      2      7    1
    7      2      8    1
    8      3      9    1
    9      3     10    1
#
#	File Created by: Spartan'20 Export
#

@<TRIPOS>MOLECULE
M0171
28 27
SMALL
USER_CHARGES


@<TRIPOS>ATOM
    1   C1         0.668584528     2.571723052    -0.473692207     C.3   1  noname   -0.661097
    2   C2         1.063252158     1.104753236    -0.639855381     C.3   1  noname    0.312930
    3   N3         0.332870986     0.186211855     0.220680753     N.3   1  noname   -0.759857
    4   C4        -1.085591237    -0.059381327    -0.078549435     C.3   1  noname    1.051540
    5   C5        -1.469308760    -0.002536869    -1.564440537     C.3   1  noname   -0.869766
    6   C6        -2.002373704     0.839915328     0.759413328     C.3   1  noname   -0.923202
    7   C7         1.108901618    -0.986261751     0.631159093     C.3   1  noname    0.643475
    8   C8         1.232087532    -2.089284731    -0.431512587     C.3   1  noname   -0.749567
    9   C9         0.617095202    -1.555080261     1.965306750     C.3   1  noname   -0.764000
   10   H10        0.710763758     2.858370432     0.571427772       H   1  noname    0.179713
   11   H11       -0.328299535     2.782263772    -0.841834173       H   1  noname    0.165807
   12   H12        1.357852381     3.200221308    -1.031220043       H   1  noname    0.152187
   13   H13        2.110113513     1.023353781    -0.372816374       H   1  noname    0.028086
   14   H14        1.004168493     0.837188902    -1.695412358       H   1  noname    0.006954
   15   H15       -1.294655167    -1.072712933     0.237952367       H   1  noname   -0.069503
   16   H16       -2.500966222    -0.319766508    -1.682899695       H   1  noname    0.171227
   17   H17       -0.850444740    -0.662078791    -2.162930378       H   1  noname    0.189900
   18   H18       -1.391048526     0.997487164    -1.976594770       H   1  noname    0.218962
   19   H19       -1.910182779     1.883955684     0.486961344       H   1  noname    0.229418
   20   H20       -1.755922147     0.748573881     1.810302331       H   1  noname    0.198310
   21   H21       -3.042520773     0.554256491     0.626531774       H   1  noname    0.184613
   22   H22        2.110535459    -0.616242437     0.820587181       H   1  noname    0.013152
   23   H23        0.274537011    -2.555510936    -0.643421825       H   1  noname    0.180332
   24   H24        1.626110524    -1.695064777    -1.363018672       H   1  noname    0.148540
   25   H25        1.906501561    -2.870518003    -0.092378309       H   1  noname    0.178209
   26   H26        0.553556847    -0.767023164     2.707172319       H   1  noname    0.172282
   27   H27        1.311347350    -2.309278554     2.325199312       H   1  noname    0.181270
   28   H28       -0.356965330    -2.027533842     1.887882422       H   1  noname    0.190084


@<TRIPOS>BOND
    1      1      2    1
    2      2      3    1
    3      3      4    1
    4      4      5    1
    5      4      6    1
    6      3      7    1
    7      7      8    1
    8      7      9    1
    9      1     10    1
   10      1     11    1
   11      1     12    1
   12      2     13    1
   13      2     14    1
   14      4     15    1
   15      5     16    1
   16      5     17    1
   17      5     18    1
   18      6     19    1
   19      6     20    1
   20      6     21    1
   21      7     22    1
   22      8     23    1
   23      8     24    1
   24      8     25    1
   25      9     26    1
   26      9     27    1
   27      9     28    1
#
#	File Created by: Spartan'20 Export
#

@<TRIPOS>MOLECULE
M0172
16 15
SMALL
USER_CHARGES


@<TRIPOS>ATOM
    1   C1         1.965658017     0.426148805    -0.188983326     C.3   1  noname   -0.699151
    2   C2         0.594564439     0.613671724     0.453315602     C.3   1  noname    0.193685
    3   N3        -0.328814780    -0.474097704     0.179087125     N.3   1  noname   -0.225287
    4   C4        -1.488598331    -0.413536030     1.042282249     C.3   1  noname   -0.532669
    5   C5        -0.721302601    -0.553900434    -1.211575588     C.3   1  noname   -0.406444
    6   H6         2.647596390     1.192080351     0.167367847       H   1  noname    0.169499
    7   H7         2.374115765    -0.544658230     0.071233131       H   1  noname    0.188232
    8   H8         1.931597315     0.502287767    -1.270161970       H   1  noname    0.200470
    9   H9         0.727375006     0.660486203     1.528994683       H   1  noname    0.076419
   10   H10        0.174170280     1.578625778     0.148874339       H   1  noname    0.045557
   11   H11       -2.124120201    -1.273741711     0.865107949       H   1  noname    0.203109
   12   H12       -2.089913623     0.488343359     0.888842924       H   1  noname    0.152533
   13   H13       -1.178096199    -0.438184771     2.080543638       H   1  noname    0.170972
   14   H14        0.141258882    -0.719197576    -1.844347765       H   1  noname    0.155983
   15   H15       -1.232735617     0.349656434    -1.560642042       H   1  noname    0.139713
   16   H16       -1.392754741    -1.393983965    -1.349938795       H   1  noname    0.167380


@<TRIPOS>BOND
    1      1      2    1
    2      2      3    1
    3      3      4    1
    4      3      5    1
    5      1      6    1
    6      1      7    1
    7      1      8    1
    8      2      9    1
    9      2     10    1
   10      4     11    1
   11      4     12    1
   12      4     13    1
   13      5     14    1
   14      5     15    1
   15      5     16    1
#
#	File Created by: Spartan'20 Export
#

@<TRIPOS>MOLECULE
M0173
42 43
SMALL
USER_CHARGES


@<TRIPOS>ATOM
    1   C1         0.399579986     1.488908483    -2.980320131     C.3   1  noname   -0.628998
    2   C2        -0.061534305     0.260343508    -2.196885111     C.3   1  noname    0.218528
    3   N3         0.013276896     0.449432837    -0.758160576     N.3   1  noname   -0.911267
    4   C4        -1.109663903    -0.037048967     0.040107007     C.3   1  noname    0.734049
    5   C5        -1.579650285    -1.477414992    -0.247244192     C.3   1  noname   -0.418815
    6   C6        -2.723784167    -1.889574888     0.686563106     C.3   1  noname   -0.138432
    7   C7        -3.903553154    -0.919960640     0.591971963     C.3   1  noname   -0.150377
    8   C8        -3.454772561     0.517143454     0.865541646     C.3   1  noname   -0.262801
    9   C9        -2.297588535     0.933159645    -0.048335398     C.3   1  noname   -0.251403
   10   C10        1.354547440     0.332287566    -0.195190032     C.3   1  noname    0.742514
   11   C11        1.577368569     1.357739138     0.938918486     C.3   1  noname   -0.360633
   12   C12        2.744094598     0.978421262     1.869823680     C.3   1  noname   -0.169238
   13   C13        3.840033203     0.236668036     1.105294825     C.3   1  noname   -0.160438
   14   C14        3.312501899    -1.100409515     0.543944923     C.3   1  noname   -0.268106
   15   C15        1.797290719    -1.069904913     0.255686626     C.3   1  noname   -0.259693
   16   H16        0.316395087     1.310547248    -4.049363938       H   1  noname    0.153032
   17   H17        1.432890735     1.744579513    -2.771648861       H   1  noname    0.160417
   18   H18       -0.212424224     2.347475781    -2.725328535       H   1  noname    0.170993
   19   H19       -1.090381465     0.066751015    -2.469231175       H   1  noname    0.062170
   20   H20        0.505383979    -0.614834856    -2.523043439       H   1  noname    0.014433
   21   H21       -0.777755060    -0.023362368     1.073060361       H   1  noname   -0.033839
   22   H22       -1.924785101    -1.559189655    -1.274895123       H   1  noname    0.113210
   23   H23       -0.752107612    -2.169952258    -0.142066266       H   1  noname    0.085410
   24   H24       -2.361660321    -1.915176808     1.713780215       H   1  noname    0.071543
   25   H25       -3.047250087    -2.899939875     0.449170555       H   1  noname    0.080174
   26   H26       -4.685686891    -1.209475975     1.289042229       H   1  noname    0.070967
   27   H27       -4.337586477    -0.978985986    -0.405234358       H   1  noname    0.089793
   28   H28       -4.289372546     1.202260282     0.741806125       H   1  noname    0.098935
   29   H29       -3.139412868     0.600456816     1.904936596       H   1  noname    0.096780
   30   H30       -2.653903773     0.981685013    -1.075823991       H   1  noname    0.115085
   31   H31       -1.951029520     1.929543033     0.206832060       H   1  noname    0.063412
   32   H32        2.027383038     0.607066576    -1.000002369       H   1  noname    0.009183
   33   H33        1.759226877     2.327897753     0.484905460       H   1  noname    0.092918
   34   H34        0.671433272     1.467581138     1.524844220       H   1  noname    0.085381
   35   H35        3.144336332     1.869624765     2.344621794       H   1  noname    0.082919
   36   H36        2.384419229     0.341435449     2.675129372       H   1  noname    0.095426
   37   H37        4.191995161     0.868835726     0.293135081       H   1  noname    0.074774
   38   H38        4.699952798     0.058541771     1.744271906       H   1  noname    0.079215
   39   H39        3.851576069    -1.346206074    -0.366567640       H   1  noname    0.085248
   40   H40        3.522932283    -1.901602460     1.246312554       H   1  noname    0.112938
   41   H41        1.248291599    -1.361645478     1.147242977       H   1  noname    0.079198
   42   H42        1.558993086    -1.803700101    -0.507602633       H   1  noname    0.075394


@<TRIPOS>BOND
    1      1      2    1
    2      2      3    1
    3      3      4    1
    4      4      5    1
    5      5      6    1
    6      6      7    1
    7      7      8    1
    8      8      9    1
    9      3     10    1
   10     10     11    1
   11     11     12    1
   12     12     13    1
   13     13     14    1
   14     14     15    1
   15      9      4    1
   16     15     10    1
   17      1     16    1
   18      1     17    1
   19      1     18    1
   20      2     19    1
   21      2     20    1
   22      4     21    1
   23      5     22    1
   24      5     23    1
   25      6     24    1
   26      6     25    1
   27      7     26    1
   28      7     27    1
   29      8     28    1
   30      8     29    1
   31      9     30    1
   32      9     31    1
   33     10     32    1
   34     11     33    1
   35     11     34    1
   36     12     35    1
   37     12     36    1
   38     13     37    1
   39     13     38    1
   40     14     39    1
   41     14     40    1
   42     15     41    1
   43     15     42    1
#
#	File Created by: Spartan'20 Export
#

@<TRIPOS>MOLECULE
M0174
21 20
SMALL
USER_CHARGES


@<TRIPOS>ATOM
    1   C1         0.511966560     2.541351900     0.085089467     C.3   1  noname   -0.550538
    2   C2        -0.360719267     1.454531326    -0.535688585     C.3   1  noname    0.103734
    3   N3         0.068924114     0.106097429    -0.179735986   N.pl3   1  noname   -0.380347
    4   C4        -0.561296279    -0.515304221     0.973873565     C.3   1  noname    0.144536
    5   C5        -1.884126601    -1.207762648     0.649475444     C.3   1  noname   -0.588172
    6   C6         1.051318186    -0.465140701    -0.923555767     C.2   1  noname    0.823383
    7   O7         1.561932312     0.112875800    -1.848055252     O.2   1  noname   -0.619586
    8   C8         1.510910481    -1.864095878    -0.555755539     C.3   1  noname   -0.782624
    9   H9         0.520077749     2.471036785     1.169081700       H   1  noname    0.132061
   10   H10        1.530210051     2.455499093    -0.273242886       H   1  noname    0.174160
   11   H11        0.137574020     3.525085507    -0.183027969       H   1  noname    0.144910
   12   H12       -0.349175493     1.543209552    -1.611203382       H   1  noname    0.075597
   13   H13       -1.387957772     1.569689692    -0.208645858       H   1  noname    0.081419
   14   H14       -0.728780889     0.258679791     1.714954620       H   1  noname    0.081235
   15   H15        0.120326526    -1.219609645     1.428894599       H   1  noname    0.055126
   16   H16       -2.324360596    -1.623818420     1.550679685       H   1  noname    0.152410
   17   H17       -2.596444678    -0.512141439     0.219581315       H   1  noname    0.156336
   18   H18       -1.739495902    -2.014661458    -0.060673543       H   1  noname    0.160441
   19   H19        2.165354695    -2.206356507    -1.343313048       H   1  noname    0.214430
   20   H20        2.066936112    -1.850787829     0.376415171       H   1  noname    0.203775
   21   H21        0.686826671    -2.558378127    -0.445147752       H   1  noname    0.217713


@<TRIPOS>BOND
    1      1      2    1
    2      2      3    1
    3      3      4    1
    4      4      5    1
    5      3      6    1
    6      6      7    2
    7      6      8    1
    8      1      9    1
    9      1     10    1
   10      1     11    1
   11      2     12    1
   12      2     13    1
   13      4     14    1
   14      4     15    1
   15      5     16    1
   16      5     17    1
   17      5     18    1
   18      8     19    1
   19      8     20    1
   20      8     21    1
#
#	File Created by: Spartan'20 Export
#

@<TRIPOS>MOLECULE
M0175
32 31
SMALL
USER_CHARGES


@<TRIPOS>ATOM
    1   C1        -2.780471995     1.972390046     0.678620584     C.3   1  noname   -0.576650
    2   C2        -1.917394102     0.850312841     1.254809014     C.3   1  noname    0.085655
    3   N3        -1.060289397     0.157727443     0.293180223   N.pl3   1  noname   -0.500527
    4   C4        -1.741431365    -0.735427867    -0.641098867     C.3   1  noname    0.311859
    5   C5        -2.155740687    -2.070541087    -0.025849454     C.3   1  noname   -0.637032
    6   C6         0.101877812     0.817239944    -0.047521483     C.2   1  noname    0.940553
    7   O7         0.294856051     1.959995059     0.285151275     O.2   1  noname   -0.602668
    8   N8         1.037963511     0.114101289    -0.778383518    N.am   1  noname   -0.684118
    9   C9         1.368151892    -1.277350946    -0.471788088     C.3   1  noname    0.310018
   10   C10        1.741059155    -1.555951760     0.984983127     C.3   1  noname   -0.542114
   11   C11        2.084771017     0.915765263    -1.408947764     C.3   1  noname    0.170620
   12   C12        3.291595985     1.248784312    -0.534067914     C.3   1  noname   -0.457575
   13   H13       -3.371847535     2.418522204     1.473278810       H   1  noname    0.149972
   14   H14       -3.472949525     1.611402487    -0.075272600       H   1  noname    0.153706
   15   H15       -2.159536909     2.742107979     0.241593708       H   1  noname    0.167361
   16   H16       -2.550084309     0.102585916     1.718552818       H   1  noname    0.080007
   17   H17       -1.281854798     1.252335931     2.029193700       H   1  noname    0.086195
   18   H18       -2.626857084    -0.237201160    -1.024669164       H   1  noname    0.040271
   19   H19       -1.100266653    -0.898443653    -1.492388594       H   1  noname    0.009414
   20   H20       -2.624541008    -2.693993888    -0.781471094       H   1  noname    0.146850
   21   H21       -2.872867399    -1.937473504     0.776243065       H   1  noname    0.175227
   22   H22       -1.304074164    -2.605812028     0.377346322       H   1  noname    0.171323
   23   H23        0.559580342    -1.932713123    -0.761603618       H   1  noname    0.033832
   24   H24        2.202379116    -1.536865063    -1.111030901       H   1  noname    0.050602
   25   H25        2.002763519    -2.604135531     1.101306993       H   1  noname    0.114745
   26   H26        0.911591091    -1.344215610     1.649250847       H   1  noname    0.137800
   27   H27        2.587935207    -0.959268151     1.301440813       H   1  noname    0.164858
   28   H28        2.410131609     0.372916346    -2.291113665       H   1  noname    0.044654
   29   H29        1.628818032     1.833150225    -1.748495237       H   1  noname    0.066659
   30   H30        3.975989940     1.887324074    -1.085580649       H   1  noname    0.109005
   31   H31        3.841098074     0.358375027    -0.244666428       H   1  noname    0.132125
   32   H32        2.979644575     1.774356986     0.358997736       H   1  noname    0.147372


@<TRIPOS>BOND
    1      1      2    1
    2      2      3    1
    3      3      4    1
    4      4      5    1
    5      3      6    1
    6      6      7    2
    7      6      8    am
    8      8      9    1
    9      9     10    1
   10      8     11    1
   11     11     12    1
   12      1     13    1
   13      1     14    1
   14      1     15    1
   15      2     16    1
   16      2     17    1
   17      4     18    1
   18      4     19    1
   19      5     20    1
   20      5     21    1
   21      5     22    1
   22      9     23    1
   23      9     24    1
   24     10     25    1
   25     10     26    1
   26     10     27    1
   27     11     28    1
   28     11     29    1
   29     12     30    1
   30     12     31    1
   31     12     32    1
#
#	File Created by: Spartan'20 Export
#

@<TRIPOS>MOLECULE
M0176
27 27
SMALL
USER_CHARGES


@<TRIPOS>ATOM
    1   C1        -3.112146763    -0.978507276    -0.890927176     C.3   1  noname   -0.528869
    2   C2        -2.433733908    -0.450742563     0.371491322     C.3   1  noname    0.118935
    3   N3        -1.029576572    -0.084400027     0.183843254   N.pl3   1  noname   -0.361788
    4   C4        -0.775729696     1.241409878    -0.370944898     C.3   1  noname    0.234313
    5   C5        -0.925338307     2.375462253     0.640969648     C.3   1  noname   -0.723979
    6   C6        -0.134095579    -1.109878889     0.175335085     C.2   1  noname    0.587048
    7   O7        -0.481085772    -2.257460034     0.286792193     O.2   1  noname   -0.561536
    8   C8         1.335325758    -0.812628663     0.052787084     C.2   1  noname   -0.346567
    9   C9         2.006602012     0.126511009     0.819132544     C.2   1  noname    0.273000
   10   C10        3.378798886     0.243412686     0.687326551     C.2   1  noname   -0.596753
   11   C11        4.021894781    -0.581367398    -0.218298847     C.2   1  noname    0.508672
   12   N12        3.396920040    -1.487581584    -0.949902087     N.2   1  noname   -0.676606
   13   C13        2.092992899    -1.608195878    -0.800472764     C.2   1  noname    0.406431
   14   H14       -3.084627780    -0.251311593    -1.696742744       H   1  noname    0.132117
   15   H15       -4.154949237    -1.199630342    -0.683386190       H   1  noname    0.134371
   16   H16       -2.632401401    -1.887647339    -1.227861914       H   1  noname    0.175112
   17   H17       -2.483118687    -1.196317963     1.150228436       H   1  noname    0.083123
   18   H18       -2.953093539     0.429015695     0.730785587       H   1  noname    0.071163
   19   H19       -1.466685992     1.405306637    -1.192352655       H   1  noname    0.066458
   20   H20        0.213765472     1.263024539    -0.800072919       H   1  noname    0.034636
   21   H21       -0.229994582     2.269027620     1.465165897       H   1  noname    0.182239
   22   H22       -0.731879490     3.327139427     0.156006985       H   1  noname    0.185772
   23   H23       -1.925518839     2.416330468     1.056339121       H   1  noname    0.194408
   24   H24        1.475276061     0.741555491     1.521227096       H   1  noname    0.087966
   25   H25        3.936244729     0.950957531     1.272310974       H   1  noname    0.204851
   26   H26        5.086862501    -0.513570243    -0.355086967       H   1  noname    0.040440
   27   H27        1.609293006    -2.369913443    -1.383692616       H   1  noname    0.075045


@<TRIPOS>BOND
    1      1      2    1
    2      2      3    1
    3      3      4    1
    4      4      5    1
    5      3      6    1
    6      6      7    2
    7      6      8    1
    8      8      9    2
    9      9     10    1
   10     10     11    2
   11     11     12    1
   12     12     13    2
   13     13      8    1
   14      1     14    1
   15      1     15    1
   16      1     16    1
   17      2     17    1
   18      2     18    1
   19      4     19    1
   20      4     20    1
   21      5     21    1
   22      5     22    1
   23      5     23    1
   24      9     24    1
   25     10     25    1
   26     11     26    1
   27     13     27    1
#
#	File Created by: Spartan'20 Export
#

@<TRIPOS>MOLECULE
M0177
22 21
SMALL
USER_CHARGES


@<TRIPOS>ATOM
    1   C1        -0.995089873     2.215096295    -0.446983635     C.3   1  noname   -0.643709
    2   C2        -0.107754642     1.394437757     0.483788970     C.3   1  noname    0.188395
    3   N3        -0.000010842    -0.000107277     0.076584742     N.3   1  noname   -0.429852
    4   C4         1.261586792    -0.604172940     0.483473498     C.3   1  noname    0.226326
    5   C5         2.416434165    -0.244960225    -0.446284333     C.3   1  noname   -0.666756
    6   C6        -1.153744361    -0.790682474     0.484132892     C.3   1  noname    0.223769
    7   C7        -1.421384241    -1.969693642    -0.446169956     C.3   1  noname   -0.644732
    8   H8        -0.607240945     2.179554912    -1.458958432       H   1  noname    0.174046
    9   H9        -2.016325054     1.850168451    -0.468887302       H   1  noname    0.177985
   10   H10       -1.025015180     3.252041551    -0.124320115       H   1  noname    0.155935
   11   H11       -0.465148338     1.478204815     1.514387777       H   1  noname    0.001696
   12   H12        0.883184700     1.830517111     0.473245204       H   1  noname    0.081453
   13   H13        1.143898402    -1.680395552     0.471520751       H   1  noname    0.072049
   14   H14        1.512437265    -0.337801575     1.514527469       H   1  noname   -0.005676
   15   H15        2.611724365     0.821923974    -0.466221207       H   1  noname    0.183750
   16   H16        3.329058241    -0.738637742    -0.123991512       H   1  noname    0.158857
   17   H17        2.191878821    -0.561248343    -1.458945188       H   1  noname    0.177485
   18   H18       -2.026834272    -0.150479111     0.473666177       H   1  noname    0.073809
   19   H19       -1.047355604    -1.141846628     1.514805121       H   1  noname   -0.007201
   20   H20       -0.594754213    -2.671661430    -0.468635415       H   1  noname    0.176888
   21   H21       -2.304187715    -2.514060354    -0.122665179       H   1  noname    0.152434
   22   H22       -1.585357472    -1.616197574    -1.458070329       H   1  noname    0.173050


@<TRIPOS>BOND
    1      1      2    1
    2      2      3    1
    3      3      4    1
    4      4      5    1
    5      3      6    1
    6      6      7    1
    7      1      8    1
    8      1      9    1
    9      1     10    1
   10      2     11    1
   11      2     12    1
   12      4     13    1
   13      4     14    1
   14      5     15    1
   15      5     16    1
   16      5     17    1
   17      6     18    1
   18      6     19    1
   19      7     20    1
   20      7     21    1
   21      7     22    1
#
#	File Created by: Spartan'20 Export
#

@<TRIPOS>MOLECULE
M0178
33 32
SMALL
USER_CHARGES


@<TRIPOS>ATOM
    1   C1         2.721142066    -1.758287938    -0.061517356     C.3   1  noname   -0.459039
    2   C2         1.442533001    -1.233742944    -0.711546685     C.3   1  noname   -0.042478
    3   N3         0.254363797    -1.252869453     0.144540284   N.pl3   1  noname   -0.366851
    4   C4        -0.349234019    -2.559205978     0.458159919     C.3   1  noname    0.150320
    5   C5        -1.668501050    -2.785696337    -0.266994571     C.3   1  noname   -0.580219
    6   S6        -0.000299896     0.000447622     1.158244912       S   1  noname    1.306253
    7   O7         1.183974534     0.337760590     1.889153087     O.2   1  noname   -0.609906
    8   O8        -1.184693299    -0.336282064     1.889069063     O.2   1  noname   -0.610079
    9   N9        -0.254599242     1.253118393     0.143615358   N.pl3   1  noname   -0.368668
   10   C10       -1.442480437     1.234067966    -0.712717154     C.3   1  noname   -0.041311
   11   C11       -2.721591851     1.757139484    -0.062551329     C.3   1  noname   -0.458992
   12   C12        0.349318542     2.559629845     0.456567586     C.3   1  noname    0.155111
   13   C13        1.668993023     2.785406050    -0.268312307     C.3   1  noname   -0.580745
   14   H14        2.992162361    -1.159928678     0.797597140       H   1  noname    0.157120
   15   H15        2.613563752    -2.788551619     0.260458072       H   1  noname    0.120722
   16   H16        3.534456963    -1.722354516    -0.780915287       H   1  noname    0.132269
   17   H17        1.198461000    -1.823106669    -1.588916088       H   1  noname    0.107410
   18   H18        1.589722143    -0.219140211    -1.054196591       H   1  noname    0.091178
   19   H19        0.368369634    -3.311863722     0.159152423       H   1  noname    0.098122
   20   H20       -0.487769544    -2.659111025     1.523477476       H   1  noname    0.069341
   21   H21       -2.037734945    -3.788868900    -0.067425907       H   1  noname    0.143436
   22   H22       -2.414741103    -2.077656327     0.070521286       H   1  noname    0.193024
   23   H23       -1.546262913    -2.679744452    -1.341383603       H   1  noname    0.142431
   24   H24       -1.198595025     1.824638089    -1.589203145       H   1  noname    0.107030
   25   H25       -1.588761843     0.219880234    -1.056626675       H   1  noname    0.090999
   26   H26       -3.533290965     1.726893236    -0.784114223       H   1  noname    0.132090
   27   H27       -2.612683295     2.785627758     0.265556583       H   1  noname    0.120582
   28   H28       -2.995734238     1.154409249     0.792713928       H   1  noname    0.157301
   29   H29        0.487908475     2.659892890     1.521947732       H   1  noname    0.068052
   30   H30       -0.368351423     3.312268995     0.157483351       H   1  noname    0.096854
   31   H31        1.545381013     2.685802278    -1.342317460       H   1  noname    0.142162
   32   H32        2.414829052     2.074198288     0.063607751       H   1  noname    0.193128
   33   H33        2.040145731     3.785229866    -0.063127572       H   1  noname    0.143354


@<TRIPOS>BOND
    1      1      2    1
    2      2      3    1
    3      3      4    1
    4      4      5    1
    5      3      6    1
    6      6      7    2
    7      6      8    2
    8      6      9    1
    9      9     10    1
   10     10     11    1
   11      9     12    1
   12     12     13    1
   13      1     14    1
   14      1     15    1
   15      1     16    1
   16      2     17    1
   17      2     18    1
   18      4     19    1
   19      4     20    1
   20      5     21    1
   21      5     22    1
   22      5     23    1
   23     10     24    1
   24     10     25    1
   25     11     26    1
   26     11     27    1
   27     11     28    1
   28     12     29    1
   29     12     30    1
   30     13     31    1
   31     13     32    1
   32     13     33    1
#
#	File Created by: Spartan'20 Export
#

@<TRIPOS>MOLECULE
M0179
52 53
SMALL
USER_CHARGES


@<TRIPOS>ATOM
    1   C1         7.050678635     0.425836163     0.564232784     C.3   1  noname   -0.548576
    2   C2         6.096367540     0.171277429    -0.601561751     C.3   1  noname    0.211022
    3   N3         4.904552933    -0.602106499    -0.251949025   N.pl3   1  noname   -0.472153
    4   C4         4.907962094    -2.001278545    -0.646305211     C.3   1  noname    0.302788
    5   C5         6.106254034    -2.785141726    -0.118137982     C.3   1  noname   -0.632096
    6   C6         3.684471714     0.073710383    -0.202239692     C.2   1  noname    0.388489
    7   C7         3.618430221     1.356432621     0.367456883     C.2   1  noname   -0.321399
    8   C8         2.431280987     2.045246332     0.436673789     C.2   1  noname   -0.129598
    9   C9         1.238315536     1.485656255    -0.020292028     C.2   1  noname   -0.029963
   10   C10        1.300034932     0.222388073    -0.589349606     C.2   1  noname   -0.084323
   11   C11        2.495176079    -0.469306726    -0.693436571     C.2   1  noname   -0.355086
   12   C12       -0.008633971     2.307965642     0.047289381     C.2   1  noname    0.463137
   13   O13        0.068680773     3.506890473    -0.005032375     O.2   1  noname   -0.528661
   14   C14       -1.342407149     1.653945940     0.177792049     C.2   1  noname   -0.057298
   15   C15       -1.554514922     0.430639030     0.802652797     C.2   1  noname   -0.063880
   16   C16       -2.819844903    -0.101063569     0.952543124     C.2   1  noname   -0.489787
   17   C17       -3.954857894     0.571717518     0.472152517     C.2   1  noname    0.643344
   18   C18       -3.733973332     1.808187642    -0.164263398     C.2   1  noname   -0.448192
   19   C19       -2.467311906     2.332277715    -0.284614090     C.2   1  noname   -0.092042
   20   N20       -5.223068805     0.053551126     0.628963190   N.pl3   1  noname   -0.616479
   21   C21       -5.427200840    -1.295423370     1.133250427     C.3   1  noname    0.235260
   22   C22       -5.111350029    -2.411030504     0.133569212     C.3   1  noname   -0.494333
   23   C23       -6.400837927     0.817919888     0.258151005     C.3   1  noname    0.217878
   24   C24       -6.828835058     0.671882728    -1.202915385     C.3   1  noname   -0.452365
   25   H25        7.903384992     1.007774211     0.226542504       H   1  noname    0.130804
   26   H26        7.421198330    -0.500834759     0.983843313       H   1  noname    0.153940
   27   H27        6.562711558     0.974838757     1.361593913       H   1  noname    0.149862
   28   H28        6.627211914    -0.351482576    -1.391984983       H   1  noname    0.050912
   29   H29        5.788459972     1.116717041    -1.029172386       H   1  noname    0.042309
   30   H30        4.019617376    -2.462429535    -0.239040416       H   1  noname    0.053942
   31   H31        4.856439203    -2.107234083    -1.732710356       H   1  noname   -0.002142
   32   H32        5.997667543    -3.829863012    -0.396020505       H   1  noname    0.145666
   33   H33        7.047613531    -2.439130949    -0.527130276       H   1  noname    0.183202
   34   H34        6.158694126    -2.723762845     0.962591200       H   1  noname    0.175935
   35   H35        4.504092771     1.807305017     0.770942695       H   1  noname    0.185740
   36   H36        2.410597255     3.030313330     0.863704555       H   1  noname    0.161787
   37   H37        0.413942589    -0.227837369    -0.997212786       H   1  noname    0.127374
   38   H38        2.487871205    -1.421339223    -1.185488218       H   1  noname    0.140809
   39   H39       -0.724386652    -0.117816690     1.207772748       H   1  noname    0.123222
   40   H40       -2.913550551    -1.041077434     1.457098503       H   1  noname    0.220201
   41   H41       -4.551709716     2.366785248    -0.572087738       H   1  noname    0.209157
   42   H42       -2.335558309     3.287640075    -0.757212348       H   1  noname    0.160923
   43   H43       -4.854337240    -1.439333634     2.042624866       H   1  noname    0.017766
   44   H44       -6.465684183    -1.373624069     1.425882377       H   1  noname    0.065121
   45   H45       -5.748815867    -2.341375731    -0.740797229       H   1  noname    0.150067
   46   H46       -5.275115827    -3.381906201     0.594581515       H   1  noname    0.111267
   47   H47       -4.082619066    -2.367362514    -0.201969074       H   1  noname    0.141013
   48   H48       -7.213541190     0.496795489     0.898729837       H   1  noname    0.048334
   49   H49       -6.236047880     1.860601827     0.495188170       H   1  noname    0.031619
   50   H50       -7.107935649    -0.352340431    -1.428609217       H   1  noname    0.141943
   51   H51       -6.031303499     0.956057409    -1.880016140       H   1  noname    0.130880
   52   H52       -7.688265478     1.303748632    -1.406274567       H   1  noname    0.102659


@<TRIPOS>BOND
    1      1      2    1
    2      2      3    1
    3      3      4    1
    4      4      5    1
    5      3      6    1
    6      6      7    2
    7      7      8    1
    8      8      9    2
    9      9     10    1
   10     10     11    2
   11      9     12    1
   12     12     13    2
   13     12     14    1
   14     14     15    2
   15     15     16    1
   16     16     17    2
   17     17     18    1
   18     18     19    2
   19     17     20    1
   20     20     21    1
   21     21     22    1
   22     20     23    1
   23     23     24    1
   24     11      6    1
   25     19     14    1
   26      1     25    1
   27      1     26    1
   28      1     27    1
   29      2     28    1
   30      2     29    1
   31      4     30    1
   32      4     31    1
   33      5     32    1
   34      5     33    1
   35      5     34    1
   36      7     35    1
   37      8     36    1
   38     10     37    1
   39     11     38    1
   40     15     39    1
   41     16     40    1
   42     18     41    1
   43     19     42    1
   44     21     43    1
   45     21     44    1
   46     22     45    1
   47     22     46    1
   48     22     47    1
   49     23     48    1
   50     23     49    1
   51     24     50    1
   52     24     51    1
   53     24     52    1
#
#	File Created by: Spartan'20 Export
#

@<TRIPOS>MOLECULE
M0180
28 28
SMALL
USER_CHARGES


@<TRIPOS>ATOM
    1   C1        -2.464780907     1.691059466    -0.270206136     C.3   1  noname   -0.408381
    2   C2        -1.824930200     1.068906155     0.971796445     C.3   1  noname    0.210630
    3   N3        -1.002171614    -0.105339110     0.713703314   N.pl3   1  noname   -0.560634
    4   C4        -1.628028569    -1.412778101     0.861485734     C.3   1  noname    0.214342
    5   C5        -2.098797436    -2.050442450    -0.446826717     C.3   1  noname   -0.418613
    6   C6         0.301199714     0.015815283     0.308335545     C.2   1  noname    0.599265
    7   C7         1.111203321    -1.116235517     0.078935543     C.2   1  noname   -0.439239
    8   C8         2.428248444    -0.991865684    -0.294691975     C.2   1  noname   -0.059727
    9   C9         2.986948408     0.263654896    -0.463144306     C.2   1  noname   -0.110555
   10   C10        2.217600309     1.396744113    -0.261633345     C.2   1  noname   -0.074079
   11   C11        0.899977124     1.278141916     0.112095398     C.2   1  noname   -0.421742
   12   N12        4.367666802     0.390877827    -0.857783306       N   1  noname    0.858941
   13   O13        4.997596753    -0.612934741    -1.026073238       O   1  noname   -0.498593
   14   O14        4.812071975     1.493633189    -0.996045169     O.2   1  noname   -0.497746
   15   H15       -3.021963716     2.581574702     0.005498726       H   1  noname    0.096242
   16   H16       -1.720528574     1.972862640    -1.005816090       H   1  noname    0.119155
   17   H17       -3.153466032     0.999579773    -0.742674693       H   1  noname    0.130385
   18   H18       -1.236430066     1.808308569     1.499750305       H   1  noname    0.022886
   19   H19       -2.604720606     0.770222361     1.660212593       H   1  noname    0.053512
   20   H20       -2.477706473    -1.288132004     1.519956435       H   1  noname    0.056369
   21   H21       -0.950719789    -2.080422321     1.380228068       H   1  noname    0.021648
   22   H22       -1.285388969    -2.166356005    -1.153235617       H   1  noname    0.122572
   23   H23       -2.865691171    -1.448270343    -0.919905521       H   1  noname    0.133128
   24   H24       -2.517669031    -3.032872011    -0.250917962       H   1  noname    0.098026
   25   H25        0.716082132    -2.103681930     0.191329801       H   1  noname    0.213249
   26   H26        3.025798712    -1.866181012    -0.458075429       H   1  noname    0.163109
   27   H27        2.651735236     2.366313133    -0.401744856       H   1  noname    0.166365
   28   H28        0.336864223     2.177817205     0.245446454       H   1  noname    0.209484


@<TRIPOS>BOND
    1      1      2    1
    2      2      3    1
    3      3      4    1
    4      4      5    1
    5      3      6    1
    6      6      7    2
    7      7      8    1
    8      8      9    2
    9      9     10    1
   10     10     11    2
   11      9     12    1
   12     12     13    1
   13     12     14    2
   14     11      6    1
   15      1     15    1
   16      1     16    1
   17      1     17    1
   18      2     18    1
   19      2     19    1
   20      4     20    1
   21      4     21    1
   22      5     22    1
   23      5     23    1
   24      5     24    1
   25      7     25    1
   26      8     26    1
   27     10     27    1
   28     11     28    1
#
#	File Created by: Spartan'20 Export
#

@<TRIPOS>MOLECULE
M0181
25 25
SMALL
USER_CHARGES


@<TRIPOS>ATOM
    1   C1        -0.815030362    -2.429968006     0.386915527     C.3   1  noname   -0.477462
    2   C2        -0.496863878    -1.259980656     1.319975584     C.3   1  noname    0.281717
    3   N3         0.233623071    -0.164908834     0.700484325   N.pl3   1  noname   -0.748253
    4   C4         1.676944968    -0.122364363     0.873592691     C.3   1  noname    0.283140
    5   C5         2.480964600    -0.744211757    -0.269278527     C.3   1  noname   -0.490674
    6   C6        -0.413768991     0.774475422    -0.061559812     C.2   1  noname    1.006505
    7   C7         0.265711082     1.822939898    -0.704562379     C.2   1  noname   -0.862839
    8   C8        -0.447847320     2.753413980    -1.430114962     C.2   1  noname    0.542862
    9   N9        -1.759174652     2.750467518    -1.591920523     N.2   1  noname   -0.747394
   10   C10       -2.399377814     1.758281251    -0.998111560     C.2   1  noname    0.536311
   11   C11       -1.806560923     0.766366303    -0.245751978     C.2   1  noname   -0.856485
   12   H12       -1.394330191    -3.181635599     0.915715489       H   1  noname    0.102674
   13   H13        0.092806527    -2.900156017     0.026464087       H   1  noname    0.145091
   14   H14       -1.387088711    -2.107861943    -0.474954241       H   1  noname    0.144382
   15   H15        0.100825267    -1.619170466     2.148218341       H   1  noname    0.050600
   16   H16       -1.410195574    -0.877667008     1.759652136       H   1  noname    0.020289
   17   H17        1.987615235     0.903195373     1.030161196       H   1  noname    0.024026
   18   H18        1.907216089    -0.643190649     1.794235806       H   1  noname    0.047542
   19   H19        2.253288640    -0.273060912    -1.218143866       H   1  noname    0.146386
   20   H20        3.544891167    -0.630507259    -0.081612005       H   1  noname    0.105753
   21   H21        2.269895091    -1.803543676    -0.364852953       H   1  noname    0.149985
   22   H22        1.330148769     1.924373365    -0.654294276       H   1  noname    0.260494
   23   H23        0.085967056     3.554099408    -1.914056159       H   1  noname    0.037776
   24   H24       -3.468513953     1.742202481    -1.126738723       H   1  noname    0.039889
   25   H25       -2.431145194     0.008412146     0.180536784       H   1  noname    0.257686


@<TRIPOS>BOND
    1      1      2    1
    2      2      3    1
    3      3      4    1
    4      4      5    1
    5      3      6    1
    6      6      7    2
    7      7      8    1
    8      8      9    2
    9      9     10    1
   10     10     11    2
   11     11      6    1
   12      1     12    1
   13      1     13    1
   14      1     14    1
   15      2     15    1
   16      2     16    1
   17      4     17    1
   18      4     18    1
   19      5     19    1
   20      5     20    1
   21      5     21    1
   22      7     22    1
   23      8     23    1
   24     10     24    1
   25     11     25    1
#
#	File Created by: Spartan'20 Export
#

@<TRIPOS>MOLECULE
M0182
16 16
SMALL
USER_CHARGES


@<TRIPOS>ATOM
    1   C1         0.574256304    -0.000038186    -2.174630097     C.3   1  noname   -0.423908
    2   C2        -0.666651851    -0.000009914    -1.290502157     C.3   1  noname    0.106713
    3   N3        -0.344556629    -0.000001029     0.128906827    N.am   1  noname   -0.426600
    4   C4        -0.151161830    -1.136087789     0.889433334     C.2   1  noname    0.746787
    5   O5        -0.236739507    -2.257739563     0.508715487     O.2   1  noname   -0.553911
    6   C6         0.181300835    -0.658935776     2.273232302     C.2   1  noname   -0.306551
    7   C7         0.181321728     0.659015477     2.273230489     C.2   1  noname   -0.306558
    8   C8        -0.151123261     1.136111218     0.889408182     C.2   1  noname    0.746778
    9   O9        -0.236722503     2.257762134     0.508638498     O.2   1  noname   -0.553914
   10   H10        0.284837002    -0.000026326    -3.220654533       H   1  noname    0.115744
   11   H11        1.178176324     0.881515286    -1.990589794       H   1  noname    0.136992
   12   H12        1.178151257    -0.881617450    -1.990611329       H   1  noname    0.136991
   13   H13       -1.270324685    -0.876407344    -1.478690515       H   1  noname    0.077771
   14   H14       -1.270322072     0.876376461    -1.478755443       H   1  noname    0.077776
   15   H15        0.374764784    -1.340778612     3.076442167       H   1  noname    0.212940
   16   H16        0.374794103     1.340861411     3.076426584       H   1  noname    0.212950


@<TRIPOS>BOND
    1      1      2    1
    2      2      3    1
    3      3      4    am
    4      4      5    2
    5      4      6    1
    6      6      7    2
    7      7      8    1
    8      8      9    2
    9      8      3    am
   10      1     10    1
   11      1     11    1
   12      1     12    1
   13      2     13    1
   14      2     14    1
   15      6     15    1
   16      7     16    1
#
#	File Created by: Spartan'20 Export
#

@<TRIPOS>MOLECULE
M0183
13 12
SMALL
USER_CHARGES


@<TRIPOS>ATOM
    1   C1         1.850667226    -0.070252832    -0.258726058     C.3   1  noname   -0.780330
    2   C2         0.476259592    -0.267454627     0.366313522     C.3   1  noname    0.369472
    3   N3        -0.568819838     0.220133337    -0.512092477     N.3   1  noname   -0.676820
    4   C4        -1.903060517     0.066244348     0.026404030     C.3   1  noname   -0.310656
    5   H5         2.059668332     0.984357248    -0.419604260       H   1  noname    0.194467
    6   H6         1.906705362    -0.573234514    -1.217482994       H   1  noname    0.205910
    7   H7         2.629137623    -0.465093707     0.386581320       H   1  noname    0.186848
    8   H8         0.447167959     0.208917181     1.351327003       H   1  noname    0.000953
    9   H9         0.303228647    -1.326893787     0.531772044       H   1  noname    0.051389
   10   H10       -0.402143196     1.184032896    -0.728225159       H   1  noname    0.376124
   11   H11       -2.624707090     0.485998353    -0.664917526       H   1  noname    0.145552
   12   H12       -2.045086494     0.542089495     1.000042737       H   1  noname    0.095252
   13   H13       -2.129017606    -0.988843393     0.138607819       H   1  noname    0.141841


@<TRIPOS>BOND
    1      1      2    1
    2      2      3    1
    3      3      4    1
    4      1      5    1
    5      1      6    1
    6      1      7    1
    7      2      8    1
    8      2      9    1
    9      3     10    1
   10      4     11    1
   11      4     12    1
   12      4     13    1
#
#	File Created by: Spartan'20 Export
#

@<TRIPOS>MOLECULE
M0184
15 14
SMALL
USER_CHARGES


@<TRIPOS>ATOM
    1   C1         2.122610470    -0.466476005    -0.062596727     C.3   1  noname   -0.489191
    2   C2         1.214838009     0.694723799     0.329871475     C.3   1  noname    0.256966
    3   N3        -0.129308275     0.577695055    -0.204889947   N.pl3   1  noname   -0.801861
    4   C4        -1.094464620    -0.140589654     0.411475585     C.2   1  noname    0.967477
    5   O5        -0.924226688    -0.685309565     1.469019438     O.2   1  noname   -0.637154
    6   C6        -2.421786484    -0.227780984    -0.313183646     C.3   1  noname   -0.865198
    7   H7         3.119675089    -0.322711405     0.343117732       H   1  noname    0.115182
    8   H8         2.206526042    -0.549991052    -1.142007428       H   1  noname    0.133233
    9   H9         1.728454929    -1.398659107     0.324656484       H   1  noname    0.158299
   10   H10        1.134191196     0.756839483     1.405462805       H   1  noname    0.062663
   11   H11        1.627634818     1.633716579    -0.022858310       H   1  noname    0.033768
   12   H12       -0.309092608     0.939593783    -1.112289626       H   1  noname    0.394371
   13   H13       -3.213001774    -0.008477377     0.391840213       H   1  noname    0.234221
   14   H14       -2.561645732    -1.246537624    -0.657767926       H   1  noname    0.235532
   15   H15       -2.500404370     0.443964076    -1.159850122       H   1  noname    0.201692


@<TRIPOS>BOND
    1      1      2    1
    2      2      3    1
    3      3      4    1
    4      4      5    2
    5      4      6    1
    6      1      7    1
    7      1      8    1
    8      1      9    1
    9      2     10    1
   10      2     11    1
   11      3     12    1
   12      6     13    1
   13      6     14    1
   14      6     15    1
#
#	File Created by: Spartan'20 Export
#

@<TRIPOS>MOLECULE
M0185
16 15
SMALL
USER_CHARGES


@<TRIPOS>ATOM
    1   C1        -1.821529004     0.765377426     0.439275820     C.3   1  noname   -0.647385
    2   C2        -0.950334470     0.394753125    -0.764921998     C.3   1  noname    0.427899
    3   N3        -0.176925306    -0.830214934    -0.649748606     N.3   1  noname   -0.914879
    4   C4         0.862204747    -0.876217584     0.366916388     C.3   1  noname    0.406092
    5   C5         2.069030548    -0.017858887     0.001545703     C.3   1  noname   -0.599035
    6   H6        -1.230341271     0.965036592     1.326294818       H   1  noname    0.174607
    7   H7        -2.403259978     1.657376123     0.225666594       H   1  noname    0.136417
    8   H8        -2.517731353    -0.034873369     0.676086977       H   1  noname    0.159202
    9   H9        -0.271996748     1.210934692    -0.986517302       H   1  noname    0.023167
   10   H10       -1.585367253     0.288107082    -1.638937434       H   1  noname    0.002694
   11   H11       -0.798479446    -1.606024475    -0.529890112       H   1  noname    0.370957
   12   H12        1.184264230    -1.910023723     0.438791555       H   1  noname    0.014098
   13   H13        0.506442155    -0.595149532     1.360000843       H   1  noname   -0.018999
   14   H14        1.827700773     1.039893517    -0.012228435       H   1  noname    0.171807
   15   H15        2.864710545    -0.159630698     0.726957764       H   1  noname    0.125560
   16   H16        2.441611830    -0.291485355    -0.979292574       H   1  noname    0.167798


@<TRIPOS>BOND
    1      1      2    1
    2      2      3    1
    3      3      4    1
    4      4      5    1
    5      1      6    1
    6      1      7    1
    7      1      8    1
    8      2      9    1
    9      2     10    1
   10      3     11    1
   11      4     12    1
   12      4     13    1
   13      5     14    1
   14      5     15    1
   15      5     16    1
#
#	File Created by: Spartan'20 Export
#

@<TRIPOS>MOLECULE
M0186
9 8
SMALL
USER_CHARGES


@<TRIPOS>ATOM
    1   C1        -0.907415265    -0.160526307    -0.059271095     C.3   1  noname   -0.555432
    2   C2         0.601308200    -0.285533360     0.089826008     C.3   1  noname    0.394066
    3   O3         1.287628736     0.809528706    -0.456387331     O.3   1  noname   -0.720042
    4   H4        -1.408619651    -1.038992091     0.335427920       H   1  noname    0.125652
    5   H5        -1.176063457    -0.048909916    -1.103574543       H   1  noname    0.160071
    6   H6        -1.282378471     0.705546498     0.479956870       H   1  noname    0.138004
    7   H7         0.866797002    -0.419858934     1.136447860       H   1  noname   -0.022650
    8   H8         0.958540768    -1.154454716    -0.446155260       H   1  noname    0.044696
    9   H9         1.060202137     1.593200120     0.023729571       H   1  noname    0.435635


@<TRIPOS>BOND
    1      1      2    1
    2      2      3    1
    3      1      4    1
    4      1      5    1
    5      1      6    1
    6      2      7    1
    7      2      8    1
    8      3      9    1
#
#	File Created by: Spartan'20 Export
#

@<TRIPOS>MOLECULE
M0187
23 22
SMALL
USER_CHARGES


@<TRIPOS>ATOM
    1   C1         4.056265012     0.412100950    -0.799911806     C.3   1  noname   -0.535098
    2   C2         3.421886697    -0.720687036    -0.012655198     C.3   1  noname    0.273593
    3   O3         2.042770613    -0.864647485    -0.321756929     O.3   1  noname   -0.519168
    4   C4         1.169860449    -0.082989695     0.310814881     C.2   1  noname    0.960231
    5   O5         1.499629351     0.729000306     1.128974624     O.2   1  noname   -0.648413
    6   C6        -0.199366345    -0.357620832    -0.117709313     C.2   1  noname   -0.726459
    7   C7        -1.194030332     0.359246031     0.427702000     C.2   1  noname    0.143242
    8   N8        -2.514408913     0.306257549     0.139901894   N.pl3   1  noname    0.066429
    9   C9        -3.469460333     0.870553137     1.069178931     C.3   1  noname   -0.517452
   10   C10       -3.008560004    -0.692914505    -0.778956297     C.3   1  noname   -0.538210
   11   H11        3.912212452     0.263363968    -1.865088709       H   1  noname    0.156467
   12   H12        3.624447802     1.363933272    -0.517429363       H   1  noname    0.167648
   13   H13        5.123539577     0.447468823    -0.601659216       H   1  noname    0.127909
   14   H14        3.862874550    -1.670487962    -0.282857242       H   1  noname    0.050800
   15   H15        3.537758064    -0.569352021     1.050087257       H   1  noname    0.049311
   16   H16       -0.347515194    -1.120777216    -0.853725649       H   1  noname    0.248188
   17   H17       -0.924849767     1.085388334     1.172331441       H   1  noname    0.146370
   18   H18       -3.843879528     0.130576217     1.773764454       H   1  noname    0.183319
   19   H19       -4.312132590     1.282673764     0.527367999       H   1  noname    0.172841
   20   H20       -3.005677170     1.670629905     1.629660514       H   1  noname    0.173386
   21   H21       -2.440272716    -0.665907068    -1.699696229       H   1  noname    0.183063
   22   H22       -2.948553490    -1.697494358    -0.363727443       H   1  noname    0.186590
   23   H23       -4.042538188    -0.478314077    -1.014610602       H   1  noname    0.195415


@<TRIPOS>BOND
    1      1      2    1
    2      2      3    1
    3      3      4    1
    4      4      5    2
    5      4      6    1
    6      6      7    2
    7      7      8    1
    8      8      9    1
    9      8     10    1
   10      1     11    1
   11      1     12    1
   12      1     13    1
   13      2     14    1
   14      2     15    1
   15      6     16    1
   16      7     17    1
   17      9     18    1
   18      9     19    1
   19      9     20    1
   20     10     21    1
   21     10     22    1
   22     10     23    1
#
#	File Created by: Spartan'20 Export
#

@<TRIPOS>MOLECULE
M0188
25 25
SMALL
USER_CHARGES


@<TRIPOS>ATOM
    1   C1         4.772446935     0.506133548     0.429305154     C.3   1  noname   -0.504942
    2   C2         4.105478628    -0.787442537    -0.000938209     C.3   1  noname    0.263893
    3   O3         2.728035559    -0.809744307     0.361941925     O.3   1  noname   -0.533809
    4   C4         1.853932858    -0.231472934    -0.449916816     C.2   1  noname    0.952448
    5   O5         2.155590489     0.310835571    -1.469266910     O.2   1  noname   -0.618902
    6   C6         0.476406693    -0.356864853     0.075570254     C.2   1  noname   -0.454623
    7   C7        -0.540532358     0.164509118    -0.598660309     C.2   1  noname   -0.189948
    8   C8        -1.969196428     0.135970281    -0.239016565     C.2   1  noname    0.336054
    9   C9        -2.454630599    -0.486673500     0.912580349     C.2   1  noname   -0.276376
   10   C10       -3.805407363    -0.483607892     1.198554745     C.2   1  noname   -0.099927
   11   C11       -4.701338667     0.141444433     0.341162472     C.2   1  noname   -0.149295
   12   C12       -4.235118064     0.762402693    -0.803517482     C.2   1  noname   -0.077573
   13   C13       -2.879066174     0.757877545    -1.088837672     C.2   1  noname   -0.309352
   14   H14        4.346612328     1.352081641    -0.095340491       H   1  noname    0.160838
   15   H15        5.834055249     0.464436188     0.205172717       H   1  noname    0.124517
   16   H16        4.654946394     0.659186667     1.496650266       H   1  noname    0.152584
   17   H17        4.535329858    -1.634825673     0.514035193       H   1  noname    0.058809
   18   H18        4.194739843    -0.939643640    -1.065871253       H   1  noname    0.049515
   19   H19        0.367487935    -0.881376128     1.005231214       H   1  noname    0.198743
   20   H20       -0.303111305     0.669378712    -1.518674787       H   1  noname    0.170817
   21   H21       -1.777705515    -0.976445147     1.587536176       H   1  noname    0.173407
   22   H22       -4.162970208    -0.968535628     2.089294378       H   1  noname    0.133713
   23   H23       -5.752535641     0.141467703     0.567060687       H   1  noname    0.137738
   24   H24       -4.921036626     1.248655036    -1.473301293       H   1  noname    0.131251
   25   H25       -2.522413821     1.242253103    -1.980753742       H   1  noname    0.170419


@<TRIPOS>BOND
    1      1      2    1
    2      2      3    1
    3      3      4    1
    4      4      5    2
    5      4      6    1
    6      6      7    2
    7      7      8    1
    8      8      9    2
    9      9     10    1
   10     10     11    2
   11     11     12    1
   12     12     13    2
   13     13      8    1
   14      1     14    1
   15      1     15    1
   16      1     16    1
   17      2     17    1
   18      2     18    1
   19      6     19    1
   20      7     20    1
   21      9     21    1
   22     10     22    1
   23     11     23    1
   24     12     24    1
   25     13     25    1
#
#	File Created by: Spartan'20 Export
#

@<TRIPOS>MOLECULE
M0189
14 13
SMALL
USER_CHARGES


@<TRIPOS>ATOM
    1   C1        -2.016129677    -0.379758464     0.294311526     C.3   1  noname   -0.505554
    2   C2        -1.043553072    -0.296537611    -0.867446840     C.3   1  noname    0.235779
    3   O3         0.303666859    -0.472912424    -0.435336908     O.3   1  noname   -0.515104
    4   C4         0.956137126     0.579313720     0.038610841     C.2   1  noname    1.012755
    5   O5         0.485204414     1.667109026     0.127090147     O.2   1  noname   -0.617788
    6   C6         2.358673180     0.214472464     0.443194075     C.3   1  noname   -0.868800
    7   H7        -3.035104939    -0.318338452    -0.075255244       H   1  noname    0.129096
    8   H8        -1.901215378    -1.320572418     0.821640648       H   1  noname    0.151991
    9   H9        -1.857111058     0.434523494     0.989939693       H   1  noname    0.161058
   10   H10       -1.129409312     0.647175226    -1.384190192       H   1  noname    0.053169
   11   H11       -1.210013707    -1.100229232    -1.570169176       H   1  noname    0.065591
   12   H12        2.887847848    -0.204457750    -0.404670474       H   1  noname    0.229098
   13   H13        2.328955345    -0.542706847     1.218081597       H   1  noname    0.239696
   14   H14        2.872052371     1.092919267     0.804200306       H   1  noname    0.229013


@<TRIPOS>BOND
    1      1      2    1
    2      2      3    1
    3      3      4    1
    4      4      5    2
    5      4      6    1
    6      1      7    1
    7      1      8    1
    8      1      9    1
    9      2     10    1
   10      2     11    1
   11      6     12    1
   12      6     13    1
   13      6     14    1
#
#	File Created by: Spartan'20 Export
#

@<TRIPOS>MOLECULE
M0190
13 12
SMALL
USER_CHARGES


@<TRIPOS>ATOM
    1   C1        -1.036999015    -1.744807138    -0.193059127     C.3   1  noname   -0.516978
    2   C2        -1.017124967    -0.374925841    -0.844387064     C.3   1  noname    0.215438
    3   O3         0.216583965     0.304642629    -0.593012574     O.3   1  noname   -0.471681
    4   C4         0.344263684     0.955267651     0.542998381     C.2   1  noname    0.952824
    5   O5        -0.480956010     1.031276602     1.391355196     O.2   1  noname   -0.572832
    6   C6         1.653993016     1.593197786     0.640196498     C.1   1  noname   -0.246334
    7   C7         2.709419462     2.120936334     0.744968291     C.1   1  noname   -0.266216
    8   H8        -1.006323363    -1.662038423     0.886350557       H   1  noname    0.165228
    9   H9        -0.191473364    -2.337065070    -0.525010614       H   1  noname    0.161788
   10   H10       -1.948702496    -2.265495896    -0.468958410       H   1  noname    0.135709
   11   H11       -1.060611434    -0.453645713    -1.920408817       H   1  noname    0.078216
   12   H12       -1.833691082     0.240670867    -0.499643075       H   1  noname    0.060411
   13   H13        3.651621604     2.591986214     0.838610758       H   1  noname    0.304428


@<TRIPOS>BOND
    1      1      2    1
    2      2      3    1
    3      3      4    1
    4      4      5    2
    5      4      6    1
    6      6      7    3
    7      1      8    1
    8      1      9    1
    9      1     10    1
   10      2     11    1
   11      2     12    1
   12      7     13    1
#
#	File Created by: Spartan'20 Export
#

@<TRIPOS>MOLECULE
M0191
20 19
SMALL
USER_CHARGES


@<TRIPOS>ATOM
    1   C1         3.567012719     0.453231055     0.964219310     C.3   1  noname   -0.537510
    2   C2         3.054723161    -0.645211720     0.052088732     C.3   1  noname    0.346631
    3   O3         1.679229039    -0.936105008     0.312651893     O.3   1  noname   -0.514841
    4   C4         0.769582240    -0.191623991    -0.259855094     C.2   1  noname    0.712889
    5   O5         0.965583727     0.721409546    -0.986851545     O.2   1  noname   -0.551815
    6   C6        -0.642193583    -0.663170531     0.128795466     C.2   1  noname    0.701613
    7   O7        -0.844174600    -1.612015511     0.805650933     O.2   1  noname   -0.573963
    8   O8        -1.552997356     0.119115261    -0.389162410     O.3   1  noname   -0.502174
    9   C9        -2.919113391    -0.198458697    -0.119265917     C.3   1  noname    0.425308
   10   C10       -3.769186618     0.839124703    -0.819195550     C.3   1  noname   -0.647349
   11   H11        3.417519570     0.184685449     2.003818056       H   1  noname    0.164616
   12   H12        4.629607227     0.598290004     0.797420909       H   1  noname    0.128159
   13   H13        3.061719933     1.390374755     0.766659141       H   1  noname    0.170578
   14   H14        3.563478976    -1.578446954     0.239528125       H   1  noname    0.047862
   15   H15        3.167153701    -0.381562530    -0.988721929       H   1  noname    0.040946
   16   H16       -3.120510754    -1.197083557    -0.480981300       H   1  noname    0.027681
   17   H17       -3.071927184    -0.191216667     0.951090476       H   1  noname    0.030360
   18   H18       -3.593076461     0.821435287    -1.888154922       H   1  noname    0.187436
   19   H19       -4.819277337     0.634349186    -0.638566445       H   1  noname    0.154819
   20   H20       -3.543153008     1.832879920    -0.451167927       H   1  noname    0.188754


@<TRIPOS>BOND
    1      1      2    1
    2      2      3    1
    3      3      4    1
    4      4      5    2
    5      4      6    1
    6      6      7    2
    7      6      8    1
    8      8      9    1
    9      9     10    1
   10      1     11    1
   11      1     12    1
   12      1     13    1
   13      2     14    1
   14      2     15    1
   15      9     16    1
   16      9     17    1
   17     10     18    1
   18     10     19    1
   19     10     20    1
#
#	File Created by: Spartan'20 Export
#

@<TRIPOS>MOLECULE
M0192
23 22
SMALL
USER_CHARGES


@<TRIPOS>ATOM
    1   C1         0.434260971    -0.000183585     3.407435139     C.3   1  noname   -0.675979
    2   C2        -0.660043295     0.000080594     2.360711521     C.3   1  noname    0.304210
    3   O3        -0.030540140    -0.000052110     1.083714991     O.3   1  noname   -0.460430
    4   C4        -0.815124833     0.000081529     0.012584655     C.2   1  noname    0.688478
    5   O5        -2.002925262     0.000226697     0.087507462     O.2   1  noname   -0.616537
    6   C6        -0.017892103     0.000018779    -1.288780036     C.3   1  noname    0.728120
    7   C7         0.865633720    -1.259523300    -1.332441620     C.3   1  noname   -0.731893
    8   C8         0.865474861     1.259652926    -1.332571866     C.3   1  noname   -0.731880
    9   C9        -0.992236421    -0.000104093    -2.470449096     C.3   1  noname   -0.772871
   10   H10        1.060835707    -0.879507233     3.309711379       H   1  noname    0.191736
   11   H11       -0.004503452    -0.000061947     4.399897073       H   1  noname    0.173548
   12   H12        1.061257294     0.878846000     3.309680359       H   1  noname    0.191730
   13   H13       -1.290934446     0.874371419     2.441625183       H   1  noname    0.058376
   14   H14       -1.291307897    -0.873923424     2.441611426       H   1  noname    0.058391
   15   H15        0.263912878    -2.162134333    -1.276674364       H   1  noname    0.167909
   16   H16        1.577628217    -1.274379259    -0.516343950       H   1  noname    0.169035
   17   H17        1.417750467    -1.286919777    -2.266614745       H   1  noname    0.186377
   18   H18        1.577423513     1.274709037    -0.516436974       H   1  noname    0.169034
   19   H19        0.263635422     2.162226608    -1.276975673       H   1  noname    0.167906
   20   H20        1.417634463     1.286981691    -2.266738954       H   1  noname    0.186374
   21   H21       -1.631553124    -0.874375097    -2.453676789       H   1  noname    0.181678
   22   H22       -1.631688538     0.874067783    -2.453736834       H   1  noname    0.181680
   23   H23       -0.436697999    -0.000098907    -3.403038283       H   1  noname    0.185007


@<TRIPOS>BOND
    1      1      2    1
    2      2      3    1
    3      3      4    1
    4      4      5    2
    5      4      6    1
    6      6      7    1
    7      6      8    1
    8      6      9    1
    9      1     10    1
   10      1     11    1
   11      1     12    1
   12      2     13    1
   13      2     14    1
   14      7     15    1
   15      7     16    1
   16      7     17    1
   17      8     18    1
   18      8     19    1
   19      8     20    1
   20      9     21    1
   21      9     22    1
   22      9     23    1
#
#	File Created by: Spartan'20 Export
#

@<TRIPOS>MOLECULE
M0193
20 19
SMALL
USER_CHARGES


@<TRIPOS>ATOM
    1   C1         3.118256665    -0.330926776     0.996496430     C.3   1  noname   -0.652393
    2   C2         2.227211616     0.068263251    -0.160757469     C.3   1  noname    0.393929
    3   O3         0.884289674     0.059796210     0.311678195     O.3   1  noname   -0.528067
    4   C4        -0.070184478     0.391353524    -0.547662008     C.2   1  noname    0.738374
    5   O5         0.149150020     0.703565816    -1.674363832     O.2   1  noname   -0.607301
    6   C6        -1.446446616     0.297521811     0.081789135     C.3   1  noname    0.349813
    7   C7        -1.820267460    -1.181105127     0.273464277     C.3   1  noname   -0.605877
    8   C8        -2.483185565     1.044324906    -0.754238545     C.3   1  noname   -0.716748
    9   H9         4.155909526    -0.336638365     0.679014240       H   1  noname    0.158279
   10   H10        3.015386211     0.366385545     1.820039620       H   1  noname    0.183533
   11   H11        2.863773368    -1.322278348     1.354087056       H   1  noname    0.186292
   12   H12        2.314025688    -0.621670005    -0.989384610       H   1  noname    0.036121
   13   H13        2.465627672     1.057673440    -0.526040691       H   1  noname    0.032345
   14   H14       -1.370288148     0.754506798     1.063783451       H   1  noname    0.008716
   15   H15       -1.094652906    -1.695385988     0.892158907       H   1  noname    0.147767
   16   H16       -2.790218194    -1.258640577     0.752947924       H   1  noname    0.162912
   17   H17       -1.879203072    -1.690794434    -0.683590598       H   1  noname    0.167105
   18   H18       -2.216978838     2.088273350    -0.873355944       H   1  noname    0.169056
   19   H19       -2.567761632     0.611139681    -1.743504063       H   1  noname    0.192076
   20   H20       -3.454443530     0.994635289    -0.272561476       H   1  noname    0.184067


@<TRIPOS>BOND
    1      1      2    1
    2      2      3    1
    3      3      4    1
    4      4      5    2
    5      4      6    1
    6      6      7    1
    7      6      8    1
    8      1      9    1
    9      1     10    1
   10      1     11    1
   11      2     12    1
   12      2     13    1
   13      6     14    1
   14      7     15    1
   15      7     16    1
   16      7     17    1
   17      8     18    1
   18      8     19    1
   19      8     20    1
#
#	File Created by: Spartan'20 Export
#

@<TRIPOS>MOLECULE
M0194
14 13
SMALL
USER_CHARGES


@<TRIPOS>ATOM
    1   C1         0.704325024    -0.000245711    -2.213785179     C.3   1  noname   -0.629505
    2   C2        -0.440353483     0.000152345    -1.225612040     C.3   1  noname    0.296493
    3   O3         0.134243912    -0.000083496     0.088582000     O.3   1  noname   -0.479826
    4   C4        -0.685903683    -0.000007282     1.103042465     C.2   1  noname    0.829716
    5   O5        -1.863789012     0.000125042     1.050145201     O.2   1  noname   -0.578563
    6   C6         0.100497338     0.000023561     2.438962507     C.3   1  noname    0.075878
    7   Cl7       -1.011709191    -0.000839674     3.801182404      Cl   1  noname   -0.056653
    8   Cl8        1.117219585    -1.451350075     2.500773763      Cl   1  noname   -0.063447
    9   Cl9        1.115667748     1.452482641     2.501286747      Cl   1  noname   -0.063451
   10   H10        1.324089877     0.879107520    -2.084937057       H   1  noname    0.187202
   11   H11        1.323086756    -0.880347951    -2.085199246       H   1  noname    0.187170
   12   H12        0.310834713     0.000120964    -3.224725651       H   1  noname    0.166936
   13   H13       -1.063720162     0.877165798    -1.324853079       H   1  noname    0.064002
   14   H14       -1.064489425    -0.876303680    -1.324862834       H   1  noname    0.064048


@<TRIPOS>BOND
    1      1      2    1
    2      2      3    1
    3      3      4    1
    4      4      5    2
    5      4      6    1
    6      6      7    1
    7      6      8    1
    8      6      9    1
    9      1     10    1
   10      1     11    1
   11      1     12    1
   12      2     13    1
   13      2     14    1
#
#	File Created by: Spartan'20 Export
#

@<TRIPOS>MOLECULE
M0195
18 18
SMALL
USER_CHARGES


@<TRIPOS>ATOM
    1   C1         2.877405043    -0.049854296     0.350634057     C.3   1  noname   -0.532764
    2   C2         2.025745134    -0.534025991    -0.808137433     C.3   1  noname    0.272587
    3   O3         0.706181443    -0.866716213    -0.382390866     O.3   1  noname   -0.554866
    4   C4        -0.187367163     0.104631550    -0.286907939     C.2   1  noname    0.949094
    5   O5         0.044427508     1.247553699    -0.536570290     O.2   1  noname   -0.596905
    6   C6        -1.507595954    -0.403860395     0.163415513     C.3   1  noname   -0.346670
    7   C7        -2.737211911     0.276363413    -0.383497226     C.3   1  noname   -0.371958
    8   C8        -2.345080026     0.504248224     1.027610586     C.3   1  noname   -0.300404
    9   H9         3.894301208     0.123332006     0.011704664       H   1  noname    0.133234
   10   H10        2.489940781     0.877943556     0.752679895       H   1  noname    0.162368
   11   H11        2.903133863    -0.792059515     1.141160582       H   1  noname    0.162108
   12   H12        1.969463716     0.207115505    -1.590471062       H   1  noname    0.046655
   13   H13        2.417215947    -1.453459088    -1.219309508       H   1  noname    0.063831
   14   H14       -1.550023592    -1.460608664     0.346331593       H   1  noname    0.188816
   15   H15       -2.575654233     1.075265208    -1.082734231       H   1  noname    0.186928
   16   H16       -3.585746736    -0.350600786    -0.590828178       H   1  noname    0.191960
   17   H17       -2.920861246     0.037840327     1.806687811       H   1  noname    0.174851
   18   H18       -1.918273781     1.456891462     1.280622031       H   1  noname    0.171136


@<TRIPOS>BOND
    1      1      2    1
    2      2      3    1
    3      3      4    1
    4      4      5    2
    5      4      6    1
    6      6      7    1
    7      7      8    1
    8      8      6    1
    9      1      9    1
   10      1     10    1
   11      1     11    1
   12      2     12    1
   13      2     13    1
   14      6     14    1
   15      7     15    1
   16      7     16    1
   17      8     17    1
   18      8     18    1
#
#	File Created by: Spartan'20 Export
#

@<TRIPOS>MOLECULE
M0196
14 13
SMALL
USER_CHARGES


@<TRIPOS>ATOM
    1   C1        -0.206011690    -0.000012843    -2.315111747     C.3   1  noname   -0.601569
    2   C2         0.668394990     0.000042288    -1.080006519     C.3   1  noname    0.330019
    3   O3        -0.197201686     0.000046796     0.057357581     O.3   1  noname   -0.544741
    4   C4         0.369379595    -0.000032635     1.251546799     C.2   1  noname    0.975263
    5   O5         1.535005353    -0.000131299     1.446865117     O.2   1  noname   -0.624125
    6   C6        -0.723348530    -0.000011869     2.302280389     C.3   1  noname   -0.402736
    7   Cl7       -0.104851965     0.000013614     3.959052580      Cl   1  noname   -0.114118
    8   H8         0.415607690    -0.000021527    -3.204659808       H   1  noname    0.153931
    9   H9        -0.839019735    -0.879806535    -2.339240324       H   1  noname    0.178206
   10   H10       -0.839059567     0.879754350    -2.339283393       H   1  noname    0.178206
   11   H11        1.301650719    -0.875314250    -1.034521069       H   1  noname    0.045933
   12   H12        1.301608884     0.875437200    -1.034558845       H   1  noname    0.045927
   13   H13       -1.341053503     0.874751729     2.165137587       H   1  noname    0.189896
   14   H14       -1.341100553    -0.874715020     2.165141652       H   1  noname    0.189908


@<TRIPOS>BOND
    1      1      2    1
    2      2      3    1
    3      3      4    1
    4      4      5    2
    5      4      6    1
    6      6      7    1
    7      1      8    1
    8      1      9    1
    9      1     10    1
   10      2     11    1
   11      2     12    1
   12      6     13    1
   13      6     14    1
#
#	File Created by: Spartan'20 Export
#

@<TRIPOS>MOLECULE
M0197
14 13
SMALL
USER_CHARGES


@<TRIPOS>ATOM
    1   C1        -0.708399290    -0.000023540    -2.194676207     C.3   1  noname   -0.649171
    2   C2         0.414915994     0.000051845    -1.180943167     C.3   1  noname    0.304093
    3   O3        -0.182317962     0.000080576     0.117269255     O.3   1  noname   -0.424781
    4   C4         0.622052823    -0.000004849     1.149507119     C.2   1  noname    0.829790
    5   O5         1.810323819    -0.000079942     1.097241877     O.2   1  noname   -0.644565
    6   C6        -0.088800144    -0.000003831     2.485805217     C.3   1  noname   -0.131811
    7   F7        -1.439117868     0.000067207     2.363363117       F   1  noname   -0.220925
    8   H8        -1.331304583     0.879311227    -2.077929805       H   1  noname    0.190086
    9   H9        -0.296723853    -0.000054455    -3.198945107       H   1  noname    0.167740
   10   H10       -1.331260413    -0.879376378    -2.077856411       H   1  noname    0.190087
   11   H11        1.043128877     0.875443671    -1.274369864       H   1  noname    0.055115
   12   H12        1.043181450    -0.875305712    -1.274310936       H   1  noname    0.055122
   13   H13        0.222105612    -0.879718178     3.032892752       H   1  noname    0.139607
   14   H14        0.222215538     0.879612360     3.032952158       H   1  noname    0.139613


@<TRIPOS>BOND
    1      1      2    1
    2      2      3    1
    3      3      4    1
    4      4      5    2
    5      4      6    1
    6      6      7    1
    7      1      8    1
    8      1      9    1
    9      1     10    1
   10      2     11    1
   11      2     12    1
   12      6     13    1
   13      6     14    1
#
#	File Created by: Spartan'20 Export
#

@<TRIPOS>MOLECULE
M0198
24 24
SMALL
USER_CHARGES


@<TRIPOS>ATOM
    1   C1         3.982342691     0.721142782     0.406037758     C.3   1  noname   -0.506605
    2   C2         3.319316807    -0.524465112     0.964261432     C.3   1  noname    0.227016
    3   O3         2.226173041    -0.943883703     0.150679162     O.3   1  noname   -0.521366
    4   C4         1.044706892    -0.368827061     0.336544507     C.2   1  noname    1.016882
    5   O5         0.838877567     0.477657300     1.142354671     O.2   1  noname   -0.602535
    6   C6         0.023521765    -0.955927250    -0.618191626     C.3   1  noname   -0.891471
    7   C7        -1.357655149    -0.359221909    -0.496494041     C.2   1  noname    0.532314
    8   C8        -2.294344126    -0.911737500     0.366576857     C.2   1  noname   -0.372399
    9   C9        -3.562666775    -0.366630467     0.478339429     C.2   1  noname   -0.082084
   10   C10       -3.911879254     0.741174819    -0.276458887     C.2   1  noname   -0.205806
   11   C11       -2.985033642     1.298952743    -1.141714007     C.2   1  noname   -0.084087
   12   C12       -1.718185588     0.750128426    -1.250060365     C.2   1  noname   -0.370607
   13   H13        3.301982173     1.563122347     0.427837748       H   1  noname    0.160684
   14   H14        4.854082835     0.971926791     1.002561876       H   1  noname    0.130525
   15   H15        4.305211152     0.555853792    -0.616211878       H   1  noname    0.153471
   16   H16        4.000809426    -1.362965308     0.955874623       H   1  noname    0.069772
   17   H17        2.969982193    -0.364434049     1.973036285       H   1  noname    0.055519
   18   H18        0.003739005    -2.026516178    -0.441936076       H   1  noname    0.235482
   19   H19        0.417325475    -0.828720506    -1.621297056       H   1  noname    0.245912
   20   H20       -2.032751728    -1.772723516     0.957148023       H   1  noname    0.185278
   21   H21       -4.276110911    -0.807159315     1.151811938       H   1  noname    0.142993
   22   H22       -4.896833380     1.164434588    -0.192497670       H   1  noname    0.153634
   23   H23       -3.247476747     2.158377021    -1.732547594       H   1  noname    0.143354
   24   H24       -1.005133722     1.190441265    -1.925655111       H   1  noname    0.184125


@<TRIPOS>BOND
    1      1      2    1
    2      2      3    1
    3      3      4    1
    4      4      5    2
    5      4      6    1
    6      6      7    1
    7      7      8    2
    8      8      9    1
    9      9     10    2
   10     10     11    1
   11     11     12    2
   12     12      7    1
   13      1     13    1
   14      1     14    1
   15      1     15    1
   16      2     16    1
   17      2     17    1
   18      6     18    1
   19      6     19    1
   20      8     20    1
   21      9     21    1
   22     10     22    1
   23     11     23    1
   24     12     24    1
#
#	File Created by: Spartan'20 Export
#

@<TRIPOS>MOLECULE
M0199
19 18
SMALL
USER_CHARGES


@<TRIPOS>ATOM
    1   C1        -2.768666639    -0.517427371     0.615188840     C.3   1  noname   -0.474131
    2   C2        -1.980020770    -0.717749913    -0.664956242     C.3   1  noname    0.176320
    3   O3        -0.576279220    -0.704077298    -0.421975800     O.3   1  noname   -0.433291
    4   C4         0.029354928     0.477655352    -0.366456008     C.2   1  noname    0.779922
    5   O5        -0.551072985     1.518715315    -0.498693424     O.2   1  noname   -0.612481
    6   N6         1.362857220     0.362991552    -0.165500119    N.am   1  noname   -0.044201
    7   C7         2.018632516    -0.891213978     0.141679924     C.3   1  noname   -0.497597
    8   C8         2.139480066     1.564223795     0.059549945     C.3   1  noname   -0.547466
    9   H9        -3.831111451    -0.608056628     0.410103215       H   1  noname    0.122311
   10   H10       -2.583296011     0.464844633     1.029527830       H   1  noname    0.162361
   11   H11       -2.499087997    -1.267558809     1.350929419       H   1  noname    0.144683
   12   H12       -2.221425359     0.036889854    -1.396755745       H   1  noname    0.072448
   13   H13       -2.169347339    -1.694437038    -1.087435494       H   1  noname    0.070531
   14   H14        3.008294137    -0.885348300    -0.299653176       H   1  noname    0.177824
   15   H15        2.126763748    -1.031126780     1.214662605       H   1  noname    0.172996
   16   H16        1.465196985    -1.719892426    -0.264141505       H   1  noname    0.169077
   17   H17        1.577169322     2.423642659    -0.262083478       H   1  noname    0.198383
   18   H18        2.389324416     1.677587884     1.111965470       H   1  noname    0.182866
   19   H19        3.063234433     1.510337497    -0.505956255       H   1  noname    0.179444


@<TRIPOS>BOND
    1      1      2    1
    2      2      3    1
    3      3      4    1
    4      4      5    2
    5      4      6    am
    6      6      7    1
    7      6      8    1
    8      1      9    1
    9      1     10    1
   10      1     11    1
   11      2     12    1
   12      2     13    1
   13      7     14    1
   14      7     15    1
   15      7     16    1
   16      8     17    1
   17      8     18    1
   18      8     19    1
#
#	File Created by: Spartan'20 Export
#

@<TRIPOS>MOLECULE
M0200
15 14
SMALL
USER_CHARGES


@<TRIPOS>ATOM
    1   C1        -0.427273426    -0.000060183    -2.747077416     C.3   1  noname   -0.563257
    2   C2         0.463626110     0.000096507    -1.523982432     C.3   1  noname    0.358448
    3   O3        -0.387981964     0.000108882    -0.380721655     O.3   1  noname   -0.538831
    4   C4         0.195447742     0.000048188     0.794156573     C.2   1  noname    1.106581
    5   O5         1.370087382    -0.000088511     0.984653559     O.2   1  noname   -0.686205
    6   O6        -0.724910351     0.000131874     1.731799108     O.3   1  noname   -0.421746
    7   C7        -0.260767054    -0.000031127     3.070374676     C.3   1  noname   -0.249482
    8   H8        -1.060917931     0.879159048    -2.760624777       H   1  noname    0.170096
    9   H9         0.181514470    -0.000056872    -3.645546736       H   1  noname    0.138565
   10   H10       -1.060745969    -0.879402734    -2.760517019       H   1  noname    0.170091
   11   H11        1.097669360    -0.875151474    -1.489345489       H   1  noname    0.029148
   12   H12        1.097527050     0.875464692    -1.489475089       H   1  noname    0.029136
   13   H13       -1.147426353     0.000135528     3.684224226       H   1  noname    0.166032
   14   H14        0.332272612     0.881490226     3.266083753       H   1  noname    0.145713
   15   H15        0.331878321    -0.881844045     3.265998721       H   1  noname    0.145711


@<TRIPOS>BOND
    1      1      2    1
    2      2      3    1
    3      3      4    1
    4      4      5    2
    5      4      6    1
    6      6      7    1
    7      1      8    1
    8      1      9    1
    9      1     10    1
   10      2     11    1
   11      2     12    1
   12      7     13    1
   13      7     14    1
   14      7     15    1
#
#	File Created by: Spartan'20 Export
#

@<TRIPOS>MOLECULE
M0201
18 17
SMALL
USER_CHARGES


@<TRIPOS>ATOM
    1   C1         3.104288238     0.380890606    -0.231941095     C.3   1  noname   -0.495747
    2   C2         2.346404109    -0.727060847     0.473896301     C.3   1  noname    0.306430
    3   O3         1.032008008    -0.309806864     0.838202966     O.3   1  noname   -0.531359
    4   C4         0.091131021    -0.386020946    -0.074432248     C.2   1  noname    1.054920
    5   O5         0.232219386    -0.787224825    -1.186806435     O.2   1  noname   -0.675380
    6   O6        -1.037285989     0.048456641     0.436556360     O.3   1  noname   -0.488723
    7   C7        -2.180340195     0.031828300    -0.414498030     C.3   1  noname    0.329859
    8   C8        -3.341607483     0.580996129     0.385817642     C.3   1  noname   -0.585750
    9   H9         2.637818675     0.626164552    -1.177685976       H   1  noname    0.157078
   10   H10        4.122941858     0.060554132    -0.427649318       H   1  noname    0.119169
   11   H11        3.138878411     1.271671497     0.385448169       H   1  noname    0.150579
   12   H12        2.280294048    -1.612971594    -0.139111214       H   1  noname    0.039582
   13   H13        2.814246789    -0.980965637     1.413619918       H   1  noname    0.051542
   14   H14       -1.975764240     0.632434437    -1.289736251       H   1  noname    0.037552
   15   H15       -2.361543198    -0.983495586    -0.739036049       H   1  noname    0.034938
   16   H16       -4.239035621     0.583450453    -0.223729486       H   1  noname    0.147524
   17   H17       -3.140528897     1.596505684     0.706153975       H   1  noname    0.174735
   18   H18       -3.524124920    -0.025406129     1.264930771       H   1  noname    0.173052


@<TRIPOS>BOND
    1      1      2    1
    2      2      3    1
    3      3      4    1
    4      4      5    2
    5      4      6    1
    6      6      7    1
    7      7      8    1
    8      1      9    1
    9      1     10    1
   10      1     11    1
   11      2     12    1
   12      2     13    1
   13      7     14    1
   14      7     15    1
   15      8     16    1
   16      8     17    1
   17      8     18    1
#
#	File Created by: Spartan'20 Export
#

@<TRIPOS>MOLECULE
M0202
21 20
SMALL
USER_CHARGES


@<TRIPOS>ATOM
    1   C1        -0.425648405    -0.000876848     2.865353930     C.3   1  noname   -0.624622
    2   C2         0.369514709     0.001670828     1.572707230     C.3   1  noname    0.319764
    3   O3        -0.545549794     0.000104596     0.514602694     O.3   1  noname   -0.556100
    4   C4        -0.088333126    -0.000092341    -0.825751395     C.3   1  noname    1.022844
    5   C5        -1.376265297     0.000453301    -1.646871573     C.3   1  noname   -0.839687
    6   C6         0.725346576    -1.261404635    -1.133276158     C.3   1  noname   -0.716807
    7   C7         0.726605676     1.260337841    -1.133513387     C.3   1  noname   -0.717015
    8   H8        -1.061045672     0.875928546     2.919587438       H   1  noname    0.179390
    9   H9        -1.056725412    -0.880843618     2.918831332       H   1  noname    0.179125
   10   H10        0.240432652     0.000401768     3.723049597       H   1  noname    0.147294
   11   H11        1.012906878    -0.873167059     1.533824618       H   1  noname    0.020614
   12   H12        1.008719666     0.879611734     1.534701614       H   1  noname    0.020474
   13   H13       -1.162038998     0.000099377    -2.710767064       H   1  noname    0.191238
   14   H14       -1.967793869     0.878411475    -1.412853365       H   1  noname    0.200638
   15   H15       -1.968760066    -0.876750340    -1.412473784       H   1  noname    0.200682
   16   H16        1.677429263    -1.271007445    -0.613823151       H   1  noname    0.145982
   17   H17        0.169368381    -2.146682898    -0.843075703       H   1  noname    0.172543
   18   H18        0.935141473    -1.323685470    -2.196199527       H   1  noname    0.167530
   19   H19        0.171671426     2.146263448    -0.843271098       H   1  noname    0.172588
   20   H20        0.936196717     1.322299727    -2.196492553       H   1  noname    0.167665
   21   H21        1.678827220     1.268928013    -0.614289697       H   1  noname    0.145859


@<TRIPOS>BOND
    1      1      2    1
    2      2      3    1
    3      3      4    1
    4      4      5    1
    5      4      6    1
    6      4      7    1
    7      1      8    1
    8      1      9    1
    9      1     10    1
   10      2     11    1
   11      2     12    1
   12      5     13    1
   13      5     14    1
   14      5     15    1
   15      6     16    1
   16      6     17    1
   17      6     18    1
   18      7     19    1
   19      7     20    1
   20      7     21    1
#
#	File Created by: Spartan'20 Export
#

@<TRIPOS>MOLECULE
M0203
13 12
SMALL
USER_CHARGES


@<TRIPOS>ATOM
    1   C1        -1.710235176    -0.235410739    -0.488174578     C.3   1  noname   -0.438613
    2   C2        -0.971151451     0.127092165     0.789864736     C.3   1  noname    0.177738
    3   O3         0.345847748    -0.367586925     0.803048729     O.3   1  noname   -0.367177
    4   C4         1.263119770     0.311281931     0.086437217     C.2   1  noname    0.233162
    5   C5         2.403102739    -0.217452130    -0.304087361     C.2   1  noname   -0.702788
    6   H6        -1.718360752    -1.310656659    -0.626835452       H   1  noname    0.148699
    7   H7        -1.238238480     0.213541588    -1.355602903       H   1  noname    0.130359
    8   H8        -2.737067042     0.114939885    -0.442304329       H   1  noname    0.110693
    9   H9        -1.456857476    -0.317926930     1.647348256       H   1  noname    0.070336
   10   H10       -0.961533277     1.204557727     0.938066282       H   1  noname    0.040843
   11   H11        1.013562517     1.339558707    -0.121202356       H   1  noname    0.108220
   12   H12        3.121709762     0.381389006    -0.830129323       H   1  noname    0.223641
   13   H13        2.646101117    -1.243327626    -0.096428918       H   1  noname    0.264886


@<TRIPOS>BOND
    1      1      2    1
    2      2      3    1
    3      3      4    1
    4      4      5    2
    5      1      6    1
    6      1      7    1
    7      1      8    1
    8      2      9    1
    9      2     10    1
   10      4     11    1
   11      5     12    1
   12      5     13    1
#
#	File Created by: Spartan'20 Export
#

@<TRIPOS>MOLECULE
M0204
11 10
SMALL
USER_CHARGES


@<TRIPOS>ATOM
    1   C1        -1.286710207     0.471764485    -0.076993734     C.3   1  noname   -0.561552
    2   C2        -0.362049223    -0.714128690     0.124610002     C.3   1  noname    0.332759
    3   O3         0.843325767    -0.569261883    -0.628886656     O.3   1  noname   -0.506433
    4   C4         1.820757328     0.143114164    -0.110669474     C.2   1  noname    0.674349
    5   O5         1.806765003     0.692967774     0.938170977     O.2   1  noname   -0.557202
    6   H6        -0.842052164     1.379361938     0.311545865       H   1  noname    0.182816
    7   H7        -2.222017677     0.299340831     0.446265194       H   1  noname    0.132276
    8   H8        -1.505275850     0.610187175    -1.130107376       H   1  noname    0.166422
    9   H9        -0.112600356    -0.847431647     1.166466141       H   1  noname    0.052587
   10   H10       -0.807192168    -1.623514039    -0.251041519       H   1  noname    0.043965
   11   H11        2.667049546     0.157599893    -0.789359422       H   1  noname    0.040014


@<TRIPOS>BOND
    1      1      2    1
    2      2      3    1
    3      3      4    1
    4      4      5    2
    5      1      6    1
    6      1      7    1
    7      1      8    1
    8      2      9    1
    9      2     10    1
   10      4     11    1
#
#	File Created by: Spartan'20 Export
#

@<TRIPOS>MOLECULE
M0205
15 14
SMALL
USER_CHARGES


@<TRIPOS>ATOM
    1   C1        -2.309212529    -0.367211041    -0.282183748     C.3   1  noname   -0.736051
    2   C2        -0.865465741    -0.010989443    -0.580624211     C.3   1  noname    0.363515
    3   O3        -0.251146817     0.368719373     0.617156573     O.3   1  noname   -0.443922
    4   C4         1.075506813     0.802843361     0.518761270     C.3   1  noname    0.162187
    5   C5         2.075796871    -0.341616728     0.409537507     C.3   1  noname   -0.511480
    6   H6        -2.357581924    -1.188076871     0.424555308       H   1  noname    0.206494
    7   H7        -2.824224162    -0.662785095    -1.191067324       H   1  noname    0.174875
    8   H8        -2.826550697     0.482526892     0.148423943       H   1  noname    0.202394
    9   H9        -0.818271595     0.807236486    -1.298772982       H   1  noname    0.010859
   10   H10       -0.355011824    -0.862440664    -1.025171090       H   1  noname    0.034145
   11   H11        1.187054104     1.485245432    -0.322848195       H   1  noname    0.034062
   12   H12        1.269343902     1.368612336     1.421753950       H   1  noname    0.078121
   13   H13        3.090008361     0.047143286     0.424696448       H   1  noname    0.130184
   14   H14        1.958299979    -1.024100265     1.244739878       H   1  noname    0.161809
   15   H15        1.951455258    -0.905107059    -0.508957326       H   1  noname    0.132806


@<TRIPOS>BOND
    1      1      2    1
    2      2      3    1
    3      3      4    1
    4      4      5    1
    5      1      6    1
    6      1      7    1
    7      1      8    1
    8      2      9    1
    9      2     10    1
   10      4     11    1
   11      4     12    1
   12      5     13    1
   13      5     14    1
   14      5     15    1
#
#	File Created by: Spartan'20 Export
#

@<TRIPOS>MOLECULE
M0206
15 14
SMALL
USER_CHARGES


@<TRIPOS>ATOM
    1   C1        -2.112801232     0.342234819    -0.354702783     C.3   1  noname   -0.521333
    2   C2        -1.225507435    -0.813472569     0.086560200     C.3   1  noname    0.214892
    3   O3         0.102831230    -0.691023636    -0.349446501     O.3   1  noname   -0.463574
    4   C4         0.895396824     0.225106540     0.339593202     C.3   1  noname    0.235898
    5   C5         2.310476398     0.022937612    -0.167991968     C.3   1  noname   -0.368479
    6   Cl6        3.436639959     1.160187611     0.640655119      Cl   1  noname   -0.169857
    7   H7        -1.820855429     1.280069208     0.105976419       H   1  noname    0.133802
    8   H8        -3.143732755     0.145321578    -0.076451996       H   1  noname    0.133397
    9   H9        -2.065577496     0.461982569    -1.431542414       H   1  noname    0.163972
   10   H10       -1.250359992    -0.921788335     1.169319823       H   1  noname    0.033482
   11   H11       -1.587054038    -1.738653170    -0.342926597       H   1  noname    0.069766
   12   H12        0.854547356     0.045926313     1.411314767       H   1  noname    0.053450
   13   H13        0.581657034     1.248057711     0.157104791       H   1  noname    0.072078
   14   H14        2.654967462    -0.976661401     0.040446542       H   1  noname    0.201940
   15   H15        2.369372113     0.209775151    -1.227908604       H   1  noname    0.210566


@<TRIPOS>BOND
    1      1      2    1
    2      2      3    1
    3      3      4    1
    4      4      5    1
    5      5      6    1
    6      1      7    1
    7      1      8    1
    8      1      9    1
    9      2     10    1
   10      2     11    1
   11      4     12    1
   12      4     13    1
   13      5     14    1
   14      5     15    1
#
#	File Created by: Spartan'20 Export
#

@<TRIPOS>MOLECULE
M0207
22 21
SMALL
USER_CHARGES


@<TRIPOS>ATOM
    1   C1         3.827047493     0.581434921    -0.284938780     C.3   1  noname   -0.669302
    2   C2         2.593255969     0.328644414     0.559289814     C.3   1  noname    0.305862
    3   O3         1.697814888    -0.442429517    -0.192276609     O.3   1  noname   -0.401838
    4   C4         0.492828359    -0.771595357     0.436260972     C.3   1  noname   -0.122195
    5   C5        -0.579754700     0.278920893     0.175108127     C.3   1  noname    0.181337
    6   O6        -1.778830304    -0.090517271     0.796042293     O.3   1  noname   -0.494411
    7   C7        -2.721033395    -0.752363586    -0.005673780     C.3   1  noname    0.275635
    8   C8        -3.630732893     0.223724427    -0.737726757     C.3   1  noname   -0.541310
    9   H9         3.563638672     1.117942421    -1.189474558       H   1  noname    0.183990
   10   H10        4.552389252     1.170430607     0.267679926       H   1  noname    0.165163
   11   H11        4.287768315    -0.357832776    -0.568870331       H   1  noname    0.192533
   12   H12        2.139243911     1.272710675     0.852901656       H   1  noname    0.029635
   13   H13        2.859842966    -0.200405302     1.472583092       H   1  noname    0.034024
   14   H14        0.626337077    -0.897131916     1.507578186       H   1  noname    0.092666
   15   H15        0.173128779    -1.725376381     0.033538423       H   1  noname    0.122140
   16   H16       -0.281587450     1.235805851     0.586103278       H   1  noname    0.063804
   17   H17       -0.703818657     0.408270963    -0.895954447       H   1  noname    0.069255
   18   H18       -3.306003934    -1.374236379     0.661048580       H   1  noname    0.047048
   19   H19       -2.224377641    -1.412924176    -0.712786628       H   1  noname    0.031803
   20   H20       -4.377415105    -0.312216550    -1.316648283       H   1  noname    0.129932
   21   H21       -4.140625886     0.863159312    -0.025557170       H   1  noname    0.164160
   22   H22       -3.069115716     0.855984727    -1.418227003       H   1  noname    0.140070


@<TRIPOS>BOND
    1      1      2    1
    2      2      3    1
    3      3      4    1
    4      4      5    1
    5      5      6    1
    6      6      7    1
    7      7      8    1
    8      1      9    1
    9      1     10    1
   10      1     11    1
   11      2     12    1
   12      2     13    1
   13      4     14    1
   14      4     15    1
   15      5     16    1
   16      5     17    1
   17      7     18    1
   18      7     19    1
   19      8     20    1
   20      8     21    1
   21      8     22    1
#
#	File Created by: Spartan'20 Export
#

@<TRIPOS>MOLECULE
M0208
26 25
SMALL
USER_CHARGES


@<TRIPOS>ATOM
    1   C1        -2.931167502    -2.618216403     0.125585243     C.3   1  noname   -0.657526
    2   C2        -1.522661629    -2.165044123     0.443261411     C.3   1  noname    0.337186
    3   O3        -1.447322413    -0.763298224     0.188526014     O.3   1  noname   -0.471776
    4   P4        -0.171576540     0.065453959     0.565765688       P   1  noname    1.308733
    5   O5         0.328747092    -0.060025706     1.924656228     O.2   1  noname   -0.765885
    6   O6         0.904931182    -0.359904063    -0.517777291     O.3   1  noname   -0.531987
    7   C7         2.259899035    -0.656795755    -0.176095691     C.3   1  noname    0.352191
    8   C8         2.960610099    -1.124121968    -1.433062225     C.3   1  noname   -0.614854
    9   O9        -0.668510337     1.489423008     0.131398005     O.3   1  noname   -0.480820
   10   C10        0.096679990     2.661573868     0.404695753     C.3   1  noname    0.339024
   11   C11       -0.764670518     3.863645734     0.082875062     C.3   1  noname   -0.661167
   12   H12       -3.170443492    -2.417569871    -0.911447198       H   1  noname    0.189211
   13   H13       -3.646577072    -2.098623447     0.751289002       H   1  noname    0.194428
   14   H14       -3.024791312    -3.684975322     0.302734597       H   1  noname    0.163659
   15   H15       -0.799522508    -2.670795748    -0.185413211       H   1  noname    0.041150
   16   H16       -1.273241553    -2.347796683     1.479689793       H   1  noname    0.049885
   17   H17        2.728911044     0.233067005     0.223757457       H   1  noname    0.021859
   18   H18        2.275466337    -1.414443334     0.593630495       H   1  noname    0.033226
   19   H19        2.929388971    -0.356939548    -2.197132482       H   1  noname    0.178252
   20   H20        3.998495952    -1.351826270    -1.213789651       H   1  noname    0.156101
   21   H21        2.487517311    -2.016244301    -1.826368387       H   1  noname    0.176170
   22   H22        0.393940362     2.654752062     1.443888904       H   1  noname    0.050468
   23   H23        0.986571055     2.646014283    -0.213364752       H   1  noname    0.041704
   24   H24       -1.071867300     3.846423334    -0.956322879       H   1  noname    0.190441
   25   H25       -1.652391448     3.869699161     0.704124904       H   1  noname    0.196729
   26   H26       -0.206414809     4.776568352     0.264895211       H   1  noname    0.163598


@<TRIPOS>BOND
    1      1      2    1
    2      2      3    1
    3      3      4    1
    4      4      5    2
    5      4      6    1
    6      6      7    1
    7      7      8    1
    8      4      9    1
    9      9     10    1
   10     10     11    1
   11      1     12    1
   12      1     13    1
   13      1     14    1
   14      2     15    1
   15      2     16    1
   16      7     17    1
   17      7     18    1
   18      8     19    1
   19      8     20    1
   20      8     21    1
   21     10     22    1
   22     10     23    1
   23     11     24    1
   24     11     25    1
   25     11     26    1
#
#	File Created by: Spartan'20 Export
#

@<TRIPOS>MOLECULE
M0209
15 14
SMALL
USER_CHARGES


@<TRIPOS>ATOM
    1   C1         1.938892966    -0.603880093    -1.061045001     C.3   1  noname   -0.508215
    2   C2         1.234980078    -0.824101199     0.260307819     C.3   1  noname    0.234269
    3   O3        -0.180757665    -0.560874130     0.115492602     O.3   1  noname   -0.464182
    4   S4        -0.756929542     0.782574120     0.700265590       S   1  noname    1.416887
    5   O5        -0.698451804     0.737121160     2.125320314     O.2   1  noname   -0.632639
    6   O6        -0.150052655     1.884653532     0.024686554     O.2   1  noname   -0.615260
    7   C7        -2.424938338     0.593962930     0.165009565     C.3   1  noname   -0.813267
    8   H8         1.503618878    -1.228860736    -1.832512360       H   1  noname    0.158109
    9   H9         2.987989166    -0.864877309    -0.959532370       H   1  noname    0.134944
   10   H10        1.866229700     0.432258009    -1.366446521       H   1  noname    0.166418
   11   H11        1.637111835    -0.199046421     1.044035127       H   1  noname    0.073541
   12   H12        1.288909660    -1.852194896     0.583277890       H   1  noname    0.073171
   13   H13       -2.966329149     1.465770054     0.505430786       H   1  noname    0.267763
   14   H14       -2.836870968    -0.299934382     0.608699823       H   1  noname    0.253394
   15   H15       -2.443402162     0.537429361    -0.912989818       H   1  noname    0.255070


@<TRIPOS>BOND
    1      1      2    1
    2      2      3    1
    3      3      4    1
    4      4      5    2
    5      4      6    2
    6      4      7    1
    7      1      8    1
    8      1      9    1
    9      1     10    1
   10      2     11    1
   11      2     12    1
   12      7     13    1
   13      7     14    1
   14      7     15    1
#
#	File Created by: Spartan'20 Export
#

@<TRIPOS>MOLECULE
M0210
19 18
SMALL
USER_CHARGES


@<TRIPOS>ATOM
    1   C1        -3.417201668    -0.000207668     0.843625252     C.3   1  noname   -0.669414
    2   C2        -2.507859838     0.000246719    -0.363642384     C.3   1  noname    0.313524
    3   O3        -1.151712335     0.000145983     0.137353574     O.3   1  noname   -0.378193
    4   S4         0.000000766     0.000092689    -0.908574808       S   1  noname    1.193647
    5   O5         0.000060873     1.220004689    -1.637116934     O.2   1  noname   -0.574200
    6   O6        -0.000055632    -1.219770687    -1.637209791     O.2   1  noname   -0.574248
    7   O7         1.151708642    -0.000010412     0.137358532     O.3   1  noname   -0.377718
    8   C8         2.507856013    -0.000191214    -0.363638161     C.3   1  noname    0.312436
    9   C9         3.417202451     0.000048297     0.843626581     C.3   1  noname   -0.670203
   10   H10       -3.246782628     0.880554000     1.450464193       H   1  noname    0.199142
   11   H11       -4.451285751    -0.000534482     0.515515094       H   1  noname    0.177943
   12   H12       -3.246282136    -0.880665691     1.450744411       H   1  noname    0.199294
   13   H13       -2.641895914    -0.882743701    -0.971447540       H   1  noname    0.067583
   14   H14       -2.641949195     0.883419799    -0.971171460       H   1  noname    0.067491
   15   H15        2.641969397     0.882746376    -0.971501344       H   1  noname    0.067864
   16   H16        2.641866119    -0.883416524    -0.971108359       H   1  noname    0.067863
   17   H17        3.246539734     0.880756244     1.450459105       H   1  noname    0.199467
   18   H18        3.246537205    -0.880460460     1.450753552       H   1  noname    0.199454
   19   H19        4.451283898    -0.000013958     0.515510483       H   1  noname    0.178270


@<TRIPOS>BOND
    1      1      2    1
    2      2      3    1
    3      3      4    1
    4      4      5    2
    5      4      6    2
    6      4      7    1
    7      7      8    1
    8      8      9    1
    9      1     10    1
   10      1     11    1
   11      1     12    1
   12      2     13    1
   13      2     14    1
   14      8     15    1
   15      8     16    1
   16      9     17    1
   17      9     18    1
   18      9     19    1
#
#	File Created by: Spartan'20 Export
#

@<TRIPOS>MOLECULE
M0211
23 22
SMALL
USER_CHARGES


@<TRIPOS>ATOM
    1   C1        -0.309262575     2.758826603     0.132195621     C.3   1  noname   -0.386653
    2   C2        -0.735453261     1.468167767    -0.578156626     C.3   1  noname   -0.125924
    3   P3        -0.314765806    -0.062747445     0.340442951       P   1  noname    0.952682
    4   O4        -0.424786824     0.082122855     1.806969425     O.2   1  noname   -0.741388
    5   C5        -1.457721454    -1.306006975    -0.359773453     C.3   1  noname   -0.318851
    6   C6        -1.337462845    -2.693258288     0.281042119     C.3   1  noname   -0.351190
    7   C7         1.345876781    -0.595836971    -0.212283375     C.3   1  noname   -0.050709
    8   C8         2.492938558     0.309474931     0.250955794     C.3   1  noname   -0.585206
    9   H9        -0.682702430     3.621689751    -0.409200403       H   1  noname    0.111727
   10   H10       -0.704019956     2.786454677     1.139403184       H   1  noname    0.131686
   11   H11        0.768083399     2.851283994     0.197094023       H   1  noname    0.109823
   12   H12       -0.316857283     1.418482970    -1.580534457       H   1  noname    0.039988
   13   H13       -1.815819814     1.472366805    -0.696033516       H   1  noname    0.057300
   14   H14       -2.460662264    -0.921259798    -0.196664159       H   1  noname    0.127105
   15   H15       -1.315111020    -1.364087500    -1.436481226       H   1  noname    0.069554
   16   H16       -0.381826373    -3.157925352     0.062471397       H   1  noname    0.091100
   17   H17       -1.442733512    -2.628189099     1.357205382       H   1  noname    0.130946
   18   H18       -2.113428450    -3.350033283    -0.097823618       H   1  noname    0.124917
   19   H19        1.349652794    -0.696935040    -1.294806882       H   1  noname    0.033147
   20   H20        1.493271108    -1.590738191     0.196696443       H   1  noname    0.087946
   21   H21        3.448128058    -0.150319810     0.020496309       H   1  noname    0.155401
   22   H22        2.468722026     1.273841018    -0.243668074       H   1  noname    0.165746
   23   H23        2.445941140     0.474626383     1.320453141       H   1  noname    0.170855


@<TRIPOS>BOND
    1      1      2    1
    2      2      3    1
    3      3      4    2
    4      3      5    1
    5      5      6    1
    6      3      7    1
    7      7      8    1
    8      1      9    1
    9      1     10    1
   10      1     11    1
   11      2     12    1
   12      2     13    1
   13      5     14    1
   14      5     15    1
   15      6     16    1
   16      6     17    1
   17      6     18    1
   18      7     19    1
   19      7     20    1
   20      8     21    1
   21      8     22    1
   22      8     23    1
#
#	File Created by: Spartan'20 Export
#

@<TRIPOS>MOLECULE
M0212
9 8
SMALL
USER_CHARGES


@<TRIPOS>ATOM
    1   C1        -0.830664872    -0.474282360     0.182757250     C.3   1  noname   -0.502637
    2   C2         0.194376024     0.650827265     0.102069397     C.3   1  noname    0.099240
    3   S3         1.491285967     0.393722674    -1.155400207     S.3   1  noname   -0.369418
    4   H4        -1.321582302    -0.623114827    -0.771963363       H   1  noname    0.140252
    5   H5        -1.586830777    -0.236428277     0.925473640       H   1  noname    0.130364
    6   H6        -0.364509731    -1.410862056     0.470609705       H   1  noname    0.143237
    7   H7        -0.283111271     1.579236199    -0.185417871       H   1  noname    0.112596
    8   H8         0.664473659     0.818763070     1.062163627       H   1  noname    0.037977
    9   H9         2.036563304    -0.697861688    -0.630292178       H   1  noname    0.208388


@<TRIPOS>BOND
    1      1      2    1
    2      2      3    1
    3      1      4    1
    4      1      5    1
    5      1      6    1
    6      2      7    1
    7      2      8    1
    8      3      9    1
#
#	File Created by: Spartan'20 Export
#

@<TRIPOS>MOLECULE
M0213
15 14
SMALL
USER_CHARGES


@<TRIPOS>ATOM
    1   C1         1.982593234    -0.426892509     0.387303324     C.3   1  noname   -0.565721
    2   C2         1.281537729     0.631921096    -0.458228433     C.3   1  noname    0.151724
    3   S3         0.000000380     0.000025452    -1.583911455     S.3   1  noname   -0.357944
    4   C4        -1.281519461    -0.631905436    -0.458237578     C.3   1  noname    0.151753
    5   C5        -1.982608414     0.426884369     0.387296514     C.3   1  noname   -0.565721
    6   H6         1.299678610    -0.903311225     1.081821735       H   1  noname    0.175020
    7   H7         2.418366623    -1.197152013    -0.238109298       H   1  noname    0.152337
    8   H8         2.776462431     0.029846341     0.971311918       H   1  noname    0.133691
    9   H9         1.994983928     1.110449095    -1.119239573       H   1  noname    0.090240
   10   H10        0.865284707     1.412144129     0.167116268       H   1  noname    0.041677
   11   H11       -0.865247604    -1.412112123     0.167109707       H   1  noname    0.041670
   12   H12       -1.994946958    -1.110458502    -1.119245315       H   1  noname    0.090231
   13   H13       -2.418465784     1.197094617    -0.238107930       H   1  noname    0.152337
   14   H14       -2.776420402    -0.029897554     0.971348794       H   1  noname    0.133687
   15   H15       -1.299699020     0.903364263     1.081771323       H   1  noname    0.175019


@<TRIPOS>BOND
    1      1      2    1
    2      2      3    1
    3      3      4    1
    4      4      5    1
    5      1      6    1
    6      1      7    1
    7      1      8    1
    8      2      9    1
    9      2     10    1
   10      4     11    1
   11      4     12    1
   12      5     13    1
   13      5     14    1
   14      5     15    1
#
#	File Created by: Spartan'20 Export
#

@<TRIPOS>MOLECULE
M0214
16 15
SMALL
USER_CHARGES


@<TRIPOS>ATOM
    1   C1        -2.705815925    -0.764934653    -0.555476319     C.3   1  noname   -0.288451
    2   C2        -2.019304148     0.569090757    -0.292949908     C.3   1  noname   -0.052615
    3   S3        -1.158189047     0.674565599     1.313290578     S.3   1  noname   -0.159928
    4   S4         0.454949989    -0.576366391     1.091152035     S.3   1  noname   -0.067835
    5   C5         1.735442249     0.525514167     0.397328059     C.3   1  noname   -0.106189
    6   C6         3.035140353    -0.255010794     0.220509397     C.3   1  noname   -0.487384
    7   H7        -1.988149259    -1.576067957    -0.577456203       H   1  noname    0.087520
    8   H8        -3.440092447    -0.980503063     0.211945405       H   1  noname    0.105189
    9   H9        -3.212183086    -0.737345595    -1.516270769       H   1  noname    0.080590
   10   H10       -2.747070406     1.372523730    -0.249082687       H   1  noname    0.110056
   11   H11       -1.320356725     0.811214893    -1.083047064       H   1  noname    0.086669
   12   H12        1.392051629     0.913388078    -0.553051647       H   1  noname    0.121360
   13   H13        1.873819906     1.358269645     1.073707151       H   1  noname    0.110588
   14   H14        3.800577002     0.396869545    -0.187762739       H   1  noname    0.147932
   15   H15        2.905707017    -1.088937746    -0.460763693       H   1  noname    0.154776
   16   H16        3.393472898    -0.642270214     1.167928404       H   1  noname    0.157721


@<TRIPOS>BOND
    1      1      2    1
    2      2      3    1
    3      3      4    1
    4      4      5    1
    5      5      6    1
    6      1      7    1
    7      1      8    1
    8      1      9    1
    9      2     10    1
   10      2     11    1
   11      5     12    1
   12      5     13    1
   13      6     14    1
   14      6     15    1
   15      6     16    1
#
#	File Created by: Spartan'20 Export
#

@<TRIPOS>MOLECULE
M0215
23 22
SMALL
USER_CHARGES


@<TRIPOS>ATOM
    1   C1        -1.010971948     2.296065417    -0.477527781     C.3   1  noname   -0.479224
    2   C2        -0.849063936     1.514139290     0.827821401     C.3   1  noname   -0.290643
    3   As3        0.150004630    -0.149933639     0.722351141      As   1  noname    0.881184
    4   O4         0.298072068    -0.861145618     2.172009055     O.2   1  noname   -0.776397
    5   C5         1.863968290     0.305707292    -0.075803466     C.3   1  noname   -0.117175
    6   C6         2.856539413    -0.859853836    -0.027265391     C.3   1  noname   -0.553465
    7   C7        -0.751062903    -1.282633770    -0.574842695     C.3   1  noname    0.039125
    8   C8        -2.136573394    -1.730880391    -0.102483367     C.3   1  noname   -0.591821
    9   H9        -1.535850435     1.719181468    -1.231384494       H   1  noname    0.141931
   10   H10       -1.585117943     3.201345685    -0.306102083       H   1  noname    0.161347
   11   H11       -0.053388758     2.593327275    -0.891728019       H   1  noname    0.118640
   12   H12       -0.335243023     2.109569116     1.574775195       H   1  noname    0.129347
   13   H13       -1.815249561     1.260188864     1.252049160       H   1  noname    0.134432
   14   H14        2.248938608     1.150683323     0.485952166       H   1  noname    0.100423
   15   H15        1.704785829     0.640794362    -1.095623473       H   1  noname    0.057090
   16   H16        3.826219535    -0.546274619    -0.400978092       H   1  noname    0.157964
   17   H17        2.523975655    -1.693222235    -0.638089250       H   1  noname    0.135304
   18   H18        2.979119929    -1.217136031     0.987655112       H   1  noname    0.183704
   19   H19       -0.805987766    -0.764636461    -1.528175005       H   1  noname    0.018209
   20   H20       -0.108397336    -2.144139644    -0.715519290       H   1  noname    0.061083
   21   H21       -2.821242617    -0.893986311    -0.020917585       H   1  noname    0.159543
   22   H22       -2.567210266    -2.437834302    -0.803872478       H   1  noname    0.153866
   23   H23       -2.076264071    -2.209325234     0.867699240       H   1  noname    0.175532


@<TRIPOS>BOND
    1      1      2    1
    2      2      3    1
    3      3      4    2
    4      3      5    1
    5      5      6    1
    6      3      7    1
    7      7      8    1
    8      1      9    1
    9      1     10    1
   10      1     11    1
   11      2     12    1
   12      2     13    1
   13      5     14    1
   14      5     15    1
   15      6     16    1
   16      6     17    1
   17      6     18    1
   18      7     19    1
   19      7     20    1
   20      8     21    1
   21      8     22    1
   22      8     23    1
#
#	File Created by: Spartan'20 Export
#

@<TRIPOS>MOLECULE
M0216
17 17
SMALL
USER_CHARGES


@<TRIPOS>ATOM
    1   C1         2.425468925    -0.690963546     0.146871470     C.3   1  noname   -0.219052
    2   C2         1.608431756     0.605744346     0.130900316     C.3   1  noname   -0.369190
    3   C3         0.120703754     0.345712034     0.088288910     C.2   1  noname    0.736874
    4   C4        -0.630979939     0.584278934    -1.056152658     C.2   1  noname   -0.602641
    5   C5        -1.986199426     0.306366653    -1.039254801     C.2   1  noname    0.219138
    6   C6        -2.550918057    -0.199913795     0.117166753     C.2   1  noname   -0.507349
    7   C7        -1.717772709    -0.401403346     1.204260479     C.2   1  noname    0.403994
    8   N8        -0.424756525    -0.139267652     1.195467640     N.2   1  noname   -0.685928
    9   H9         2.255393625    -1.269600898    -0.755000582       H   1  noname    0.078651
   10   H10        3.487316431    -0.474386055     0.210262770       H   1  noname    0.083835
   11   H11        2.150420609    -1.302004108     0.997724222       H   1  noname    0.092718
   12   H12        1.827605946     1.179371985     1.025605160       H   1  noname    0.120592
   13   H13        1.898401146     1.212725808    -0.722201739       H   1  noname    0.108387
   14   H14       -0.161733151     0.980718498    -1.938166916       H   1  noname    0.201245
   15   H15       -2.588929700     0.483766092    -1.912462968       H   1  noname    0.096932
   16   H16       -3.598271325    -0.429959900     0.180460496       H   1  noname    0.186754
   17   H17       -2.114181361    -0.791185051     2.126231448       H   1  noname    0.055039


@<TRIPOS>BOND
    1      1      2    1
    2      2      3    1
    3      3      4    2
    4      4      5    1
    5      5      6    2
    6      6      7    1
    7      7      8    2
    8      8      3    1
    9      1      9    1
   10      1     10    1
   11      1     11    1
   12      2     12    1
   13      2     13    1
   14      4     14    1
   15      5     15    1
   16      6     16    1
   17      7     17    1
#
#	File Created by: Spartan'20 Export
#

@<TRIPOS>MOLECULE
M0217
17 17
SMALL
USER_CHARGES


@<TRIPOS>ATOM
    1   C1        -0.277822248    -2.352622319    -0.502401297     C.3   1  noname   -0.312580
    2   C2        -0.467513542    -1.394997742     0.679796516     C.3   1  noname   -0.156358
    3   C3        -0.030365188     0.019356240     0.369987437     C.2   1  noname   -0.223236
    4   C4        -0.869310742     0.929619397    -0.257974482     C.2   1  noname    0.152159
    5   C5        -0.406975776     2.200900951    -0.543002839     C.2   1  noname   -0.528525
    6   C6         0.891441893     2.522364743    -0.186486813     C.2   1  noname    0.453348
    7   N7         1.704878337     1.674191561     0.414013583     N.2   1  noname   -0.670151
    8   C8         1.248871850     0.464398411     0.680070696     C.2   1  noname    0.382436
    9   H9         0.765101943    -2.402222939    -0.798335490       H   1  noname    0.107368
   10   H10       -0.603051511    -3.355453951    -0.242147734       H   1  noname    0.096528
   11   H11       -0.850899491    -2.026936033    -1.364770143       H   1  noname    0.105863
   12   H12       -1.512520264    -1.392673282     0.975827948       H   1  noname    0.096882
   13   H13        0.091746547    -1.764526899     1.533694761       H   1  noname    0.092468
   14   H14       -1.875840308     0.647953210    -0.517634208       H   1  noname    0.108851
   15   H15       -1.034694509     2.927211832    -1.025941097       H   1  noname    0.193412
   16   H16        1.288104574     3.501728331    -0.390581331       H   1  noname    0.042106
   17   H17        1.938848436    -0.198291511     1.175884493       H   1  noname    0.059432


@<TRIPOS>BOND
    1      1      2    1
    2      2      3    1
    3      3      4    2
    4      4      5    1
    5      5      6    2
    6      6      7    1
    7      7      8    2
    8      8      3    1
    9      1      9    1
   10      1     10    1
   11      1     11    1
   12      2     12    1
   13      2     13    1
   14      4     14    1
   15      5     15    1
   16      6     16    1
   17      8     17    1
#
#	File Created by: Spartan'20 Export
#

@<TRIPOS>MOLECULE
M0218
17 17
SMALL
USER_CHARGES


@<TRIPOS>ATOM
    1   C1        -0.658197160    -0.000750164    -2.270308665     C.3   1  noname   -0.264339
    2   C2         0.627414173     0.000443861    -1.433194165     C.3   1  noname   -0.240503
    3   C3         0.347553918     0.000314430     0.052362185     C.2   1  noname    0.552416
    4   C4         0.198391238     1.183300438     0.764458304     C.2   1  noname   -0.651793
    5   C5        -0.089275536     1.126621245     2.116791310     C.2   1  noname    0.498846
    6   N6        -0.233535734     0.000034253     2.790871606     N.2   1  noname   -0.701600
    7   C7        -0.090213386    -1.126445361     2.116195776     C.2   1  noname    0.498425
    8   C8         0.197422228    -1.182844113     0.763876039     C.2   1  noname   -0.651486
    9   H9        -1.260462516    -0.878375467    -2.058179924       H   1  noname    0.094945
   10   H10       -0.423961210    -0.000464703    -3.330431978       H   1  noname    0.087821
   11   H11       -1.262213396     0.875651958    -2.058064653       H   1  noname    0.095061
   12   H12        1.222328451     0.872525618    -1.687338574       H   1  noname    0.094734
   13   H13        1.223859735    -0.870648431    -1.687146006       H   1  noname    0.094637
   14   H14        0.307598051     2.137414442     0.279320501       H   1  noname    0.208840
   15   H15       -0.205359962     2.035780116     2.681739247       H   1  noname    0.037512
   16   H16       -0.207146619    -2.035748179     2.680756707       H   1  noname    0.037598
   17   H17        0.305797723    -2.136809943     0.278292289       H   1  noname    0.208885


@<TRIPOS>BOND
    1      1      2    1
    2      2      3    1
    3      3      4    2
    4      4      5    1
    5      5      6    2
    6      6      7    1
    7      7      8    2
    8      8      3    1
    9      1      9    1
   10      1     10    1
   11      1     11    1
   12      2     12    1
   13      2     13    1
   14      4     14    1
   15      5     15    1
   16      7     16    1
   17      8     17    1
#
#	File Created by: Spartan'20 Export
#

@<TRIPOS>MOLECULE
M0219
7 6
SMALL
USER_CHARGES


@<TRIPOS>ATOM
    1   C1        -0.646932936    -0.037064586     0.051378278     C.3   1  noname   -0.621517
    2   N2         0.821961840     0.052807911    -0.090343176       N   1  noname    0.964409
    3   O3         1.427959545    -0.973400258    -0.081395813       O   1  noname   -0.504781
    4   O4         1.297879996     1.141615936    -0.172720219     O.2   1  noname   -0.499462
    5   H5        -0.849524607    -0.122908415     1.109176891       H   1  noname    0.225039
    6   H6        -0.973572308    -0.923951405    -0.464924389       H   1  noname    0.219447
    7   H7        -1.077771529     0.862900818    -0.351171571       H   1  noname    0.216866


@<TRIPOS>BOND
    1      1      2    1
    2      2      3    1
    3      2      4    2
    4      1      5    1
    5      1      6    1
    6      1      7    1
#
#	File Created by: Spartan'20 Export
#

@<TRIPOS>MOLECULE
M0220
15 14
SMALL
USER_CHARGES


@<TRIPOS>ATOM
    1   C1        -0.992271744    -1.302275898    -1.078080134     C.3   1  noname   -0.451520
    2   N2        -0.520307132    -0.396377479    -0.051072796   N.pl3   1  noname    0.019626
    3   C3        -1.445261400     0.619923720     0.396439509     C.3   1  noname   -0.517282
    4   C4         0.811770499    -0.190441887     0.080595288     C.2   1  noname    0.073202
    5   C5         1.423450551     0.840835827     0.682487390     C.2   1  noname   -0.508176
    6   C6         2.849938683     0.858200620     0.789443346     C.1   1  noname    0.421395
    7   N7         3.985405884     0.880953101     0.873715176     N.1   1  noname   -0.502658
    8   H8        -1.167059660    -0.796168902    -2.025524019       H   1  noname    0.172638
    9   H9        -1.918722223    -1.763687666    -0.759862361       H   1  noname    0.165077
   10   H10       -0.264515560    -2.086340491    -1.237927262       H   1  noname    0.156499
   11   H11       -1.396424570     1.520078110    -0.215017003       H   1  noname    0.183633
   12   H12       -2.451799922     0.226391538     0.351162972       H   1  noname    0.198191
   13   H13       -1.234535473     0.886878576     1.424337648       H   1  noname    0.173365
   14   H14        1.421498016    -0.971968448    -0.336069141       H   1  noname    0.174270
   15   H15        0.898834052     1.673999280     1.105371388       H   1  noname    0.241740


@<TRIPOS>BOND
    1      1      2    1
    2      2      3    1
    3      2      4    1
    4      4      5    2
    5      5      6    1
    6      6      7    3
    7      1      8    1
    8      1      9    1
    9      1     10    1
   10      3     11    1
   11      3     12    1
   12      3     13    1
   13      4     14    1
   14      5     15    1
#
#	File Created by: Spartan'20 Export
#

@<TRIPOS>MOLECULE
M0221
16 15
SMALL
USER_CHARGES


@<TRIPOS>ATOM
    1   C1        -1.169255648    -1.267910115     0.307934417     C.3   1  noname   -0.542871
    2   N2        -0.764636488     0.120176650     0.242189030   N.pl3   1  noname    0.112469
    3   C3        -1.809572801     1.116782467     0.116469750     C.3   1  noname   -0.531576
    4   C4         0.509255994     0.440560558    -0.026783271     C.2   1  noname    0.127768
    5   C5         1.535107594    -0.410613936    -0.190078230     C.2   1  noname   -0.655318
    6   N6         2.836332787     0.113120795    -0.420809045       N   1  noname    1.011353
    7   O7         3.715332224    -0.687694788    -0.564521548       O   1  noname   -0.528311
    8   O8         2.998969917     1.305026959    -0.465182068     O.2   1  noname   -0.553859
    9   H9        -0.514150887    -1.817221589     0.972523291       H   1  noname    0.187382
   10   H10       -2.174760864    -1.325043253     0.701114146       H   1  noname    0.202329
   11   H11       -1.150965416    -1.740710956    -0.671273151       H   1  noname    0.193344
   12   H12       -1.379153914     2.107054211     0.166654488       H   1  noname    0.179343
   13   H13       -2.518331294     1.012395041     0.928835653       H   1  noname    0.179495
   14   H14       -2.344883157     1.020865661    -0.824271215       H   1  noname    0.189560
   15   H15        0.720685086     1.489074003    -0.103230736       H   1  noname    0.172919
   16   H16        1.510026867    -1.475861710    -0.169571512       H   1  noname    0.255972


@<TRIPOS>BOND
    1      1      2    1
    2      2      3    1
    3      2      4    1
    4      4      5    2
    5      5      6    1
    6      6      7    1
    7      6      8    2
    8      1      9    1
    9      1     10    1
   10      1     11    1
   11      3     12    1
   12      3     13    1
   13      3     14    1
   14      4     15    1
   15      5     16    1
#
#	File Created by: Spartan'20 Export
#

@<TRIPOS>MOLECULE
M0222
14 13
SMALL
USER_CHARGES


@<TRIPOS>ATOM
    1   C1        -1.118027127    -1.235601654    -0.654313759     C.3   1  noname   -0.629150
    2   N2        -0.306774366    -0.095756012    -0.282385719   N.pl3   1  noname    0.157905
    3   C3        -0.502942834     1.121190478    -1.048629102     C.3   1  noname   -0.470803
    4   C4         0.577772730    -0.169110411     0.704417942     C.2   1  noname    0.279614
    5   N5         1.321130338     0.810365565     1.064715060     N.2   1  noname   -0.576383
    6   C6         2.163034218     0.584381625     2.075992516     C.1   1  noname    0.573153
    7   N7         2.897217921     0.437334191     2.936114122     N.1   1  noname   -0.582156
    8   H8        -0.927595288    -1.516561260    -1.684134176       H   1  noname    0.205974
    9   H9        -0.890740211    -2.081339661    -0.020116080       H   1  noname    0.198833
   10   H10       -2.172483109    -0.999649857    -0.549453058       H   1  noname    0.204730
   11   H11        0.155056210     1.888686567    -0.680323850       H   1  noname    0.183594
   12   H12       -1.531908121     1.452549232    -0.955800894       H   1  noname    0.168664
   13   H13       -0.290324499     0.935145874    -2.096132971       H   1  noname    0.169027
   14   H14        0.626584138    -1.131634676     1.190049969       H   1  noname    0.116996


@<TRIPOS>BOND
    1      1      2    1
    2      2      3    1
    3      2      4    1
    4      4      5    2
    5      5      6    1
    6      6      7    3
    7      1      8    1
    8      1      9    1
    9      1     10    1
   10      3     11    1
   11      3     12    1
   12      3     13    1
   13      4     14    1
#
#	File Created by: Spartan'20 Export
#

@<TRIPOS>MOLECULE
M0223
13 12
SMALL
USER_CHARGES


@<TRIPOS>ATOM
    1   C1        -1.383217687     0.000001776    -0.038029326     C.3   1  noname   -0.428421
    2   N2         0.000008119    -0.000001591    -0.458052792     N.3   1  noname   -0.135159
    3   C3         0.691657174    -1.197940331    -0.038206568     C.3   1  noname   -0.462069
    4   C4         0.691656031     1.197939142    -0.038212222     C.3   1  noname   -0.462065
    5   H5        -1.498573258    -0.000005382     1.050490311       H   1  noname    0.152702
    6   H6        -1.886728297    -0.876924182    -0.429509562       H   1  noname    0.163490
    7   H7        -1.886735517     0.876931810    -0.429496211       H   1  noname    0.163491
    8   H8         0.749021354    -1.298393524     1.050273777       H   1  noname    0.158794
    9   H9         1.702948065    -1.195484371    -0.429485372       H   1  noname    0.172179
   10   H10        0.183997069    -2.072202433    -0.430267835       H   1  noname    0.173045
   11   H11        1.702938099     1.195486816    -0.429512382       H   1  noname    0.172176
   12   H12        0.183988161     2.072204287    -0.430259219       H   1  noname    0.173044
   13   H13        0.749040687     1.298387983     1.050267400       H   1  noname    0.158794


@<TRIPOS>BOND
    1      1      2    1
    2      2      3    1
    3      2      4    1
    4      1      5    1
    5      1      6    1
    6      1      7    1
    7      3      8    1
    8      3      9    1
    9      3     10    1
   10      4     11    1
   11      4     12    1
   12      4     13    1
#
#	File Created by: Spartan'20 Export
#

@<TRIPOS>MOLECULE
M0224
11 10
SMALL
USER_CHARGES


@<TRIPOS>ATOM
    1   C1        -0.013738790     1.237647475    -0.433963526     C.3   1  noname   -0.413284
    2   N2        -0.310793037    -0.000027065     0.274036709   N.pl3   1  noname   -0.216700
    3   C3        -0.013239078    -1.237660653    -0.433935843     C.3   1  noname   -0.412929
    4   C4        -0.067441118     0.000042320     1.588697484     C.1   1  noname    0.525701
    5   N5         0.110564822     0.000120208     2.714605120     N.1   1  noname   -0.541878
    6   H6        -0.541135044     1.227782897    -1.378896554       H   1  noname    0.181559
    7   H7        -0.362944389     2.078129684     0.148399829       H   1  noname    0.175836
    8   H8         1.050422334     1.354512773    -0.624364535       H   1  noname    0.172264
    9   H9         1.051172767    -1.355687752    -0.621847797       H   1  noname    0.172153
   10   H10       -0.538234842    -1.227074655    -1.380072021       H   1  noname    0.181617
   11   H11       -0.364633625    -2.077785233     0.147341134       H   1  noname    0.175660


@<TRIPOS>BOND
    1      1      2    1
    2      2      3    1
    3      2      4    1
    4      4      5    3
    5      1      6    1
    6      1      7    1
    7      1      8    1
    8      3      9    1
    9      3     10    1
   10      3     11    1
#
#	File Created by: Spartan'20 Export
#

@<TRIPOS>MOLECULE
M0225
21 20
SMALL
USER_CHARGES


@<TRIPOS>ATOM
    1   C1        -1.628497009    -0.928640248     1.581452839     C.3   1  noname   -0.578430
    2   N2        -0.920907985    -0.532072629     0.385715010   N.pl3   1  noname   -0.191000
    3   C3        -1.800865122    -0.329960084    -0.754659652     C.3   1  noname   -0.496176
    4   C4         0.151276948     0.354316204     0.545186261     C.2   1  noname    0.850587
    5   N5         0.430824044     1.006256426     1.589361824     N.2   1  noname   -0.891152
    6   N6         0.945229918     0.481278716    -0.588925720   N.pl3   1  noname   -0.184837
    7   C7         1.954977916     1.521050363    -0.537730680     C.3   1  noname   -0.618078
    8   C8         1.420926322    -0.736114723    -1.226673292     C.3   1  noname   -0.475397
    9   H9        -0.929750568    -1.221759363     2.354076666       H   1  noname    0.183416
   10   H10       -2.251862345    -1.784063982     1.348291966       H   1  noname    0.216064
   11   H11       -2.274549704    -0.143044632     1.974814295       H   1  noname    0.170093
   12   H12       -2.572599657     0.408987772    -0.537946360       H   1  noname    0.168049
   13   H13       -1.241470452     0.008809361    -1.609772906       H   1  noname    0.166843
   14   H14       -2.288678610    -1.265456700    -1.004431385       H   1  noname    0.186906
   15   H15       -0.282130375     0.931760246     2.287838493       H   1  noname    0.370029
   16   H16        2.773700894     1.271139055     0.133494711       H   1  noname    0.202612
   17   H17        2.350969448     1.660631669    -1.537526387       H   1  noname    0.210450
   18   H18        1.515750687     2.446760822    -0.200125459       H   1  noname    0.204860
   19   H19        1.709022292    -0.513284898    -2.247680420       H   1  noname    0.183019
   20   H20        0.650061648    -1.488996067    -1.243801298       H   1  noname    0.155609
   21   H21        2.288571711    -1.147597308    -0.710958506       H   1  noname    0.166534


@<TRIPOS>BOND
    1      1      2    1
    2      2      3    1
    3      2      4    1
    4      4      5    2
    5      4      6    1
    6      6      7    1
    7      6      8    1
    8      1      9    1
    9      1     10    1
   10      1     11    1
   11      3     12    1
   12      3     13    1
   13      3     14    1
   14      5     15    1
   15      7     16    1
   16      7     17    1
   17      7     18    1
   18      8     19    1
   19      8     20    1
   20      8     21    1
#
#	File Created by: Spartan'20 Export
#

@<TRIPOS>MOLECULE
M0226
15 14
SMALL
USER_CHARGES


@<TRIPOS>ATOM
    1   C1        -1.705540665     0.276608392     0.814754257     C.3   1  noname   -0.485456
    2   N2        -0.452155515     0.013019909     0.127648302   N.pl3   1  noname    0.060553
    3   C3        -0.585127565    -0.224100097    -1.300428364     C.3   1  noname   -0.656128
    4   C4         0.691530246     0.115331534     0.828331387     C.2   1  noname    0.451315
    5   O5         0.763930048     0.369080794     1.993713322     O.2   1  noname   -0.533516
    6   C6         2.015271896    -0.122624253     0.074535463     C.3   1  noname    0.624011
    7   F7         3.032356466     0.016778943     0.879783392       F   1  noname   -0.202205
    8   F8         2.160890466     0.739585640    -0.920457005       F   1  noname   -0.217486
    9   F9         2.064161791    -1.343010776    -0.437679236       F   1  noname   -0.226176
   10   H10       -1.523317897     0.409820684     1.867285858       H   1  noname    0.200813
   11   H11       -2.169587886     1.173821494     0.415762507       H   1  noname    0.172147
   12   H12       -2.382820084    -0.557889730     0.667545611       H   1  noname    0.167226
   13   H13        0.337786272    -0.536559414    -1.753323369       H   1  noname    0.216200
   14   H14       -1.318793853    -1.005805751    -1.457881573       H   1  noname    0.217772
   15   H15       -0.928583720     0.675942631    -1.799590553       H   1  noname    0.210930


@<TRIPOS>BOND
    1      1      2    1
    2      2      3    1
    3      2      4    1
    4      4      5    2
    5      4      6    1
    6      6      7    1
    7      6      8    1
    8      6      9    1
    9      1     10    1
   10      1     11    1
   11      1     12    1
   12      3     13    1
   13      3     14    1
   14      3     15    1
#
#	File Created by: Spartan'20 Export
#

@<TRIPOS>MOLECULE
M0227
15 14
SMALL
USER_CHARGES


@<TRIPOS>ATOM
    1   C1        -1.057958711     0.716994147     0.648341620     C.3   1  noname   -0.684173
    2   N2        -0.370533052    -0.258462911    -0.172893185   N.pl3   1  noname    0.008991
    3   C3        -1.212558633    -0.938799661    -1.139771841     C.3   1  noname   -0.542739
    4   C4         0.967527220    -0.446374077    -0.229579843     C.2   1  noname    0.717465
    5   O5         1.493776962    -1.219970966    -0.981547524     O.2   1  noname   -0.598375
    6   C6         1.859894769     0.328632788     0.735896297     C.3   1  noname   -0.433097
    7   Cl7        2.004487099     2.053770234     0.274660013      Cl   1  noname   -0.108029
    8   H8        -1.400191018     1.556442911     0.051444356       H   1  noname    0.217009
    9   H9        -0.429811985     1.100345343     1.434296146       H   1  noname    0.221719
   10   H10       -1.921211000     0.248447436     1.107171533       H   1  noname    0.221463
   11   H11       -0.637218630    -1.686092436    -1.657327843       H   1  noname    0.201275
   12   H12       -2.043300623    -1.413098679    -0.628111791       H   1  noname    0.178764
   13   H13       -1.611997225    -0.232671672    -1.862476310       H   1  noname    0.191725
   14   H14        1.516628318     0.291836315     1.756883995       H   1  noname    0.192939
   15   H15        2.842466507    -0.100998773     0.663014378       H   1  noname    0.215063


@<TRIPOS>BOND
    1      1      2    1
    2      2      3    1
    3      2      4    1
    4      4      5    2
    5      4      6    1
    6      6      7    1
    7      1      8    1
    8      1      9    1
    9      1     10    1
   10      3     11    1
   11      3     12    1
   12      3     13    1
   13      6     14    1
   14      6     15    1
#
#	File Created by: Spartan'20 Export
#

@<TRIPOS>MOLECULE
M0228
12 11
SMALL
USER_CHARGES


@<TRIPOS>ATOM
    1   C1        -0.162707060     1.110975325    -0.763825724     C.3   1  noname   -0.603047
    2   N2         0.122157233    -0.134330734    -0.067431919   N.pl3   1  noname    0.058911
    3   C3        -0.996393127    -0.746032333     0.639600790     C.3   1  noname   -0.504188
    4   C4         1.351068397    -0.593613107     0.224945330     C.2   1  noname    0.568037
    5   O5         1.616741878    -1.519196201     0.908469921     O.2   1  noname   -0.513255
    6   Cl6        2.680073486     0.307214982    -0.538133006      Cl   1  noname   -0.156545
    7   H7        -0.015272655     1.974766277    -0.123750331       H   1  noname    0.196409
    8   H8        -1.198423605     1.083305264    -1.072608286       H   1  noname    0.221860
    9   H9         0.447081848     1.215727632    -1.645604169       H   1  noname    0.182594
   10   H10       -1.336447346    -0.106202886     1.448694898       H   1  noname    0.181627
   11   H11       -0.693353179    -1.695511223     1.043153519       H   1  noname    0.200900
   12   H12       -1.814525869    -0.897102995    -0.053511025       H   1  noname    0.166696


@<TRIPOS>BOND
    1      1      2    1
    2      2      3    1
    3      2      4    1
    4      4      5    2
    5      4      6    1
    6      1      7    1
    7      1      8    1
    8      1      9    1
    9      3     10    1
   10      3     11    1
   11      3     12    1
#
#	File Created by: Spartan'20 Export
#

@<TRIPOS>MOLECULE
M0229
20 19
SMALL
USER_CHARGES


@<TRIPOS>ATOM
    1   C1        -2.363136736     0.384665298    -0.827595053     C.3   1  noname   -0.581270
    2   N2        -1.165270501     0.114638577    -0.055096107   N.pl3   1  noname   -0.182606
    3   C3        -1.399184215    -0.727976439     1.105426730     C.3   1  noname   -0.451757
    4   C4        -0.000358678    -0.001148636    -0.786310637     C.2   1  noname    0.882773
    5   O5        -0.001359858    -0.004046647    -1.988354223     O.2   1  noname   -0.625937
    6   N6         1.165605541    -0.113772946    -0.055723051    N.am   1  noname   -0.181729
    7   C7         1.398985792     0.728396496     1.105802802     C.3   1  noname   -0.453174
    8   C8         2.363520825    -0.383811111    -0.828126720     C.3   1  noname   -0.581236
    9   H9        -3.132577073     0.745350481    -0.154730474       H   1  noname    0.201416
   10   H10       -2.731368092    -0.503196117    -1.335551520       H   1  noname    0.191726
   11   H11       -2.161935419     1.141061963    -1.568888861       H   1  noname    0.200986
   12   H12       -1.985592393    -1.602599748     0.832243096       H   1  noname    0.170446
   13   H13       -1.947392536    -0.177018114     1.861547567       H   1  noname    0.170038
   14   H14       -0.470345632    -1.070331542     1.529929614       H   1  noname    0.152478
   15   H15        1.947420981     0.176485724     1.862005656       H   1  noname    0.170196
   16   H16        1.986084664     1.604064341     0.833595442       H   1  noname    0.170684
   17   H17        0.469640654     1.069548218     1.530427013       H   1  noname    0.152952
   18   H18        2.730844038     0.503915581    -1.336917312       H   1  noname    0.191654
   19   H19        3.133231042    -0.743117611    -0.154898844       H   1  noname    0.201442
   20   H20        2.163187597    -1.141107767    -1.568785120       H   1  noname    0.200918


@<TRIPOS>BOND
    1      1      2    1
    2      2      3    1
    3      2      4    1
    4      4      5    2
    5      4      6    am
    6      6      7    1
    7      6      8    1
    8      1      9    1
    9      1     10    1
   10      1     11    1
   11      3     12    1
   12      3     13    1
   13      3     14    1
   14      7     15    1
   15      7     16    1
   16      7     17    1
   17      8     18    1
   18      8     19    1
   19      8     20    1
#
#	File Created by: Spartan'20 Export
#

@<TRIPOS>MOLECULE
M0230
23 23
SMALL
USER_CHARGES


@<TRIPOS>ATOM
    1   C1         2.762809394    -0.142782941    -1.224019195     C.3   1  noname   -0.512500
    2   N2         2.342511965     0.153652708     0.131231207   N.pl3   1  noname   -0.061993
    3   C3         3.364517115     0.667575454     1.019668108     C.3   1  noname   -0.526292
    4   C4         1.052468159     0.205118015     0.529068717     C.2   1  noname    0.844333
    5   O5         0.676515918     0.548199709     1.608033025     O.2   1  noname   -0.622827
    6   O6         0.220508549    -0.199658368    -0.445168274     O.3   1  noname   -0.485362
    7   C7        -1.141015148    -0.215454180    -0.218197958     C.2   1  noname    0.496009
    8   C8        -1.926448927     0.622323016    -0.982369520     C.2   1  noname   -0.334316
    9   C9        -3.305180543     0.574357384    -0.841494922     C.2   1  noname   -0.064895
   10   C10       -3.883522991    -0.304443726     0.058129527     C.2   1  noname   -0.226782
   11   C11       -3.077816398    -1.139979939     0.817649970     C.2   1  noname   -0.024258
   12   C12       -1.701141322    -1.102782030     0.681222143     C.2   1  noname   -0.369915
   13   H13        3.677014693    -0.723906753    -1.187094539       H   1  noname    0.184281
   14   H14        2.962201131     0.767870969    -1.783366580       H   1  noname    0.174085
   15   H15        2.012243566    -0.713999296    -1.741424338       H   1  noname    0.182823
   16   H16        3.751725202     1.616094195     0.656683144       H   1  noname    0.181472
   17   H17        4.186143775    -0.038189032     1.075532827       H   1  noname    0.175527
   18   H18        2.951201850     0.810053867     2.003442316       H   1  noname    0.195136
   19   H19       -1.459463922     1.295796499    -1.677083553       H   1  noname    0.184402
   20   H20       -3.922526664     1.224628907    -1.435121493       H   1  noname    0.136082
   21   H21       -4.952682980    -0.339855143     0.167879161       H   1  noname    0.150128
   22   H22       -3.521340422    -1.823847235     1.518678105       H   1  noname    0.128628
   23   H23       -1.068722001    -1.740772082     1.268122122       H   1  noname    0.196233


@<TRIPOS>BOND
    1      1      2    1
    2      2      3    1
    3      2      4    1
    4      4      5    2
    5      4      6    1
    6      6      7    1
    7      7      8    2
    8      8      9    1
    9      9     10    2
   10     10     11    1
   11     11     12    2
   12     12      7    1
   13      1     13    1
   14      1     14    1
   15      1     15    1
   16      3     16    1
   17      3     17    1
   18      3     18    1
   19      8     19    1
   20      9     20    1
   21     10     21    1
   22     11     22    1
   23     12     23    1
#
#	File Created by: Spartan'20 Export
#

@<TRIPOS>MOLECULE
M0231
22 22
SMALL
USER_CHARGES


@<TRIPOS>ATOM
    1   C1        -3.040241564    -0.709015813    -0.723603276     C.3   1  noname   -0.570504
    2   N2        -1.720724181    -0.514745429    -0.151390540   N.pl3   1  noname   -0.047233
    3   C3        -1.676477942    -0.637236920     1.294709703     C.3   1  noname   -0.421163
    4   C4        -0.836365350     0.229226881    -0.881099377     C.2   1  noname    0.568374
    5   O5        -1.152953040     0.752589703    -1.916399811     O.2   1  noname   -0.572372
    6   C6         0.585709016     0.332741611    -0.401607432     C.2   1  noname    0.042425
    7   C7         1.250743457     1.538859915    -0.587417342     C.2   1  noname   -0.174469
    8   C8         2.579771083     1.665980235    -0.223965030     C.2   1  noname   -0.123437
    9   C9         3.261916037     0.579116869     0.301248081     C.2   1  noname   -0.130497
   10   C10        2.611834306    -0.634088954     0.463664388     C.2   1  noname   -0.119740
   11   C11        1.276080842    -0.755398338     0.118392183     C.2   1  noname   -0.174514
   12   H12       -2.963632322    -0.844214100    -1.789913484       H   1  noname    0.208268
   13   H13       -3.482147817    -1.594824691    -0.282416844       H   1  noname    0.184962
   14   H14       -3.692824954     0.138617414    -0.528730030       H   1  noname    0.191634
   15   H15       -1.808964389    -1.672700193     1.590494487       H   1  noname    0.145411
   16   H16       -0.739845114    -0.283708861     1.691720662       H   1  noname    0.145562
   17   H17       -2.476003430    -0.052584155     1.743602984       H   1  noname    0.162166
   18   H18        0.721498002     2.364976130    -1.023275883       H   1  noname    0.158349
   19   H19        3.084773593     2.605060481    -0.359787597       H   1  noname    0.134440
   20   H20        4.297454634     0.674753378     0.575355082       H   1  noname    0.135464
   21   H21        3.142986412    -1.483356061     0.854437699       H   1  noname    0.132208
   22   H22        0.777412720    -1.700049105     0.235981377       H   1  noname    0.124667


@<TRIPOS>BOND
    1      1      2    1
    2      2      3    1
    3      2      4    1
    4      4      5    2
    5      4      6    1
    6      6      7    2
    7      7      8    1
    8      8      9    2
    9      9     10    1
   10     10     11    2
   11     11      6    1
   12      1     12    1
   13      1     13    1
   14      1     14    1
   15      3     15    1
   16      3     16    1
   17      3     17    1
   18      7     18    1
   19      8     19    1
   20      9     20    1
   21     10     21    1
   22     11     22    1
#
#	File Created by: Spartan'20 Export
#

@<TRIPOS>MOLECULE
M0232
26 26
SMALL
USER_CHARGES


@<TRIPOS>ATOM
    1   C1         0.022375477     1.186094941    -2.444541776     C.3   1  noname   -0.442981
    2   N2        -0.336823017     0.000233216    -1.688762154     N.3   1  noname   -0.387739
    3   C3         0.020969646    -1.186194915    -2.444306981     C.3   1  noname   -0.443940
    4   C4         0.193094548     0.000197539    -0.320737839     C.3   1  noname    0.454959
    5   C5        -0.255405567    -1.254293971     0.447644813     C.3   1  noname   -0.296209
    6   C6         0.198390264    -1.250854355     1.910768315     C.3   1  noname   -0.239164
    7   C7        -0.269182640    -0.000114033     2.650837729     C.3   1  noname   -0.095362
    8   C8         0.197650317     1.251014941     1.910953338     C.3   1  noname   -0.244270
    9   C9        -0.256137902     1.254327283     0.447831998     C.3   1  noname   -0.298705
   10   H10       -0.347244308     1.087303930    -3.457672984       H   1  noname    0.194675
   11   H11       -0.434131048     2.071242333    -2.026612452       H   1  noname    0.150783
   12   H12        1.103683678     1.349355348    -2.497090133       H   1  noname    0.133772
   13   H13       -0.348385393    -1.087013300    -3.457498239       H   1  noname    0.194907
   14   H14       -0.436755541    -2.070706082    -2.026325036       H   1  noname    0.150869
   15   H15        1.102063895    -1.350893713    -2.496723850       H   1  noname    0.134074
   16   H16        1.291183951     0.000474933    -0.351377004       H   1  noname    0.022017
   17   H17       -1.340645373    -1.314154385     0.396992697       H   1  noname    0.124301
   18   H18        0.132620216    -2.149204406    -0.023060991       H   1  noname    0.111365
   19   H19       -0.172548944    -2.145597841     2.403198577       H   1  noname    0.094244
   20   H20        1.285357679    -1.305005504     1.951251889       H   1  noname    0.099510
   21   H21       -1.356042665    -0.000436359     2.714844809       H   1  noname    0.087814
   22   H22        0.105299180    -0.000089256     3.671031390       H   1  noname    0.060900
   23   H23       -0.173861027     2.145468900     2.403493154       H   1  noname    0.096074
   24   H24        1.284587357     1.305831774     1.951481146       H   1  noname    0.100943
   25   H25       -1.341401659     1.313476123     0.397164863       H   1  noname    0.124484
   26   H26        0.131288874     2.149536858    -0.022785278       H   1  noname    0.112681


@<TRIPOS>BOND
    1      1      2    1
    2      2      3    1
    3      2      4    1
    4      4      5    1
    5      5      6    1
    6      6      7    1
    7      7      8    1
    8      8      9    1
    9      9      4    1
   10      1     10    1
   11      1     11    1
   12      1     12    1
   13      3     13    1
   14      3     14    1
   15      3     15    1
   16      4     16    1
   17      5     17    1
   18      5     18    1
   19      6     19    1
   20      6     20    1
   21      7     21    1
   22      7     22    1
   23      8     23    1
   24      8     24    1
   25      9     25    1
   26      9     26    1
#
#	File Created by: Spartan'20 Export
#

@<TRIPOS>MOLECULE
M0233
20 20
SMALL
USER_CHARGES


@<TRIPOS>ATOM
    1   C1        -1.965191275     0.500942833    -1.234770359     C.3   1  noname   -0.485062
    2   N2        -1.763149857     0.002446299     0.107010730   N.pl3   1  noname   -0.134049
    3   C3        -2.768845563    -0.909070665     0.602062424     C.3   1  noname   -0.431831
    4   C4        -0.473065164    -0.171665882     0.537677811     C.2   1  noname    0.313497
    5   N5         0.537998107     0.202053414    -0.101549496     N.2   1  noname   -0.444568
    6   C6         1.813584471     0.037807964     0.505604819     C.3   1  noname    0.119722
    7   C7         2.840633994     1.100995358     0.266500897     C.3   1  noname   -0.426530
    8   C8         2.978444354    -0.237799024    -0.392765847     C.3   1  noname   -0.356598
    9   H9        -2.992152374     0.830538349    -1.335009527       H   1  noname    0.185029
   10   H10       -1.305932709     1.336325227    -1.412996584       H   1  noname    0.168706
   11   H11       -1.765704557    -0.257240512    -1.991153257       H   1  noname    0.172045
   12   H12       -2.575365150    -1.147085143     1.640455208       H   1  noname    0.144833
   13   H13       -3.743903169    -0.440738746     0.544967782       H   1  noname    0.166708
   14   H14       -2.807297169    -1.842217841     0.038220284       H   1  noname    0.163540
   15   H15       -0.409499858    -0.640985598     1.514019493       H   1  noname    0.076553
   16   H16        1.829043123    -0.438875301     1.476546722       H   1  noname    0.079500
   17   H17        2.539232615     1.931639926    -0.345244998       H   1  noname    0.192421
   18   H18        3.513457847     1.350322936     1.068010875       H   1  noname    0.169607
   19   H19        2.771464449    -0.302087417    -1.444973871       H   1  noname    0.173717
   20   H20        3.746247886    -0.905306176    -0.042613108       H   1  noname    0.152760


@<TRIPOS>BOND
    1      1      2    1
    2      2      3    1
    3      2      4    1
    4      4      5    2
    5      5      6    1
    6      6      7    1
    7      7      8    1
    8      8      6    1
    9      1      9    1
   10      1     10    1
   11      1     11    1
   12      3     12    1
   13      3     13    1
   14      3     14    1
   15      4     15    1
   16      6     16    1
   17      7     17    1
   18      7     18    1
   19      8     19    1
   20      8     20    1
#
#	File Created by: Spartan'20 Export
#

@<TRIPOS>MOLECULE
M0234
26 26
SMALL
USER_CHARGES


@<TRIPOS>ATOM
    1   C1        -2.891584088     1.033731058    -0.335848517     C.3   1  noname   -0.386614
    2   N2        -2.839263953    -0.235386354     0.367338315   N.pl3   1  noname   -0.037617
    3   C3        -4.140751713    -0.862658197     0.509949343     C.3   1  noname   -0.597329
    4   C4        -1.753603622    -1.080291950     0.325469811     C.2   1  noname    0.298202
    5   N5        -0.524193828    -0.907458391     0.135210941     N.2   1  noname   -0.698271
    6   C6         0.133941430     0.354244661    -0.075572581     C.3   1  noname    0.479415
    7   C7         1.646940306     0.195584649    -0.085383903     C.2   1  noname   -0.003481
    8   C8         2.434385814     1.340323260    -0.158581282     C.2   1  noname   -0.367241
    9   C9         3.808196448     1.228493809    -0.184187971     C.2   1  noname    0.236545
   10   C10        4.437277377    -0.002307846    -0.137895155     C.2   1  noname   -0.282454
   11   C11        3.638852334    -1.125296934    -0.066256897     C.2   1  noname    0.137952
   12   C12        2.257470617    -1.046955758    -0.038535021     C.2   1  noname   -0.151006
   13   Cl13       4.401589347    -2.692955254    -0.009460359      Cl   1  noname   -0.124828
   14   Cl14       4.783207014     2.672225972    -0.271971731      Cl   1  noname   -0.133461
   15   H15       -2.025022914     1.639682383    -0.138506406       H   1  noname    0.105257
   16   H16       -3.756491951     1.582969766     0.012925906       H   1  noname    0.166819
   17   H17       -2.989132125     0.898599831    -1.411969213       H   1  noname    0.156092
   18   H18       -4.058205729    -1.773889451     1.085652519       H   1  noname    0.191049
   19   H19       -4.591849237    -1.100502931    -0.452464046       H   1  noname    0.195042
   20   H20       -4.807850301    -0.194504865     1.040634195       H   1  noname    0.199705
   21   H21       -2.040739310    -2.099708414     0.537577601       H   1  noname    0.108481
   22   H22       -0.116231069     1.070018460     0.703465111       H   1  noname    0.007903
   23   H23       -0.152401196     0.803497182    -1.023492243       H   1  noname    0.007545
   24   H24        1.980630411     2.313749994    -0.194811390       H   1  noname    0.165214
   25   H25        5.506030437    -0.079754757    -0.155983120       H   1  noname    0.186999
   26   H26        1.658799502    -1.931449924     0.022696094       H   1  noname    0.140079


@<TRIPOS>BOND
    1      1      2    1
    2      2      3    1
    3      2      4    1
    4      4      5    2
    5      5      6    1
    6      6      7    1
    7      7      8    2
    8      8      9    1
    9      9     10    2
   10     10     11    1
   11     11     12    2
   12     11     13    1
   13      9     14    1
   14     12      7    1
   15      1     15    1
   16      1     16    1
   17      1     17    1
   18      3     18    1
   19      3     19    1
   20      3     20    1
   21      4     21    1
   22      6     22    1
   23      6     23    1
   24      8     24    1
   25     10     25    1
   26     12     26    1
#
#	File Created by: Spartan'20 Export
#

@<TRIPOS>MOLECULE
M0235
26 26
SMALL
USER_CHARGES


@<TRIPOS>ATOM
    1   C1        -4.119118767     0.514375754    -0.776509171     C.3   1  noname   -0.572894
    2   N2        -2.892157446     0.314108135    -0.032397887   N.pl3   1  noname    0.001189
    3   C3        -2.597664522     1.354896573     0.929229188     C.3   1  noname   -0.449758
    4   C4        -1.968595111    -0.560609129    -0.551953904     C.2   1  noname    0.348674
    5   N5        -0.742112097    -0.760063120    -0.370943322     N.2   1  noname   -0.720279
    6   C6         0.145103841     0.007863613     0.464776597     C.3   1  noname    0.443750
    7   C7         1.603146799    -0.316726563     0.178164207     C.2   1  noname   -0.038200
    8   C8         1.989462819    -1.286441447    -0.733425089     C.2   1  noname   -0.082272
    9   C9         3.332069457    -1.559542612    -0.955603111     C.2   1  noname   -0.212077
   10   C10        4.293945316    -0.857879194    -0.258832428     C.2   1  noname    0.144522
   11   C11        3.934905852     0.115820564     0.657127139     C.2   1  noname   -0.138267
   12   C12        2.594154159     0.377586987     0.865913105     C.2   1  noname   -0.231548
   13   Cl13       5.985792650    -1.199046121    -0.533842516      Cl   1  noname   -0.158783
   14   H14       -4.946057020     0.662068304    -0.090941361       H   1  noname    0.185851
   15   H15       -4.063233416     1.381079643    -1.433193023       H   1  noname    0.192520
   16   H16       -4.337872040    -0.355217399    -1.381040030       H   1  noname    0.179807
   17   H17       -1.890056425     1.010532472     1.664421096       H   1  noname    0.132174
   18   H18       -2.215331744     2.260773071     0.464445882       H   1  noname    0.161318
   19   H19       -3.512493857     1.608525760     1.451917352       H   1  noname    0.172614
   20   H20       -2.439720819    -1.234592632    -1.251625686       H   1  noname    0.076462
   21   H21       -0.035386205    -0.208550734     1.515866167       H   1  noname    0.004853
   22   H22        0.012370856     1.078879927     0.338890387       H   1  noname    0.003990
   23   H23        1.236327731    -1.828269402    -1.269688406       H   1  noname    0.123534
   24   H24        3.623489797    -2.312309555    -1.664503691       H   1  noname    0.160477
   25   H25        4.690504329     0.656516185     1.194653426       H   1  noname    0.149905
   26   H26        2.318525864     1.136220919     1.579095079       H   1  noname    0.122438


@<TRIPOS>BOND
    1      1      2    1
    2      2      3    1
    3      2      4    1
    4      4      5    2
    5      5      6    1
    6      6      7    1
    7      7      8    2
    8      8      9    1
    9      9     10    2
   10     10     11    1
   11     11     12    2
   12     10     13    1
   13     12      7    1
   14      1     14    1
   15      1     15    1
   16      1     16    1
   17      3     17    1
   18      3     18    1
   19      3     19    1
   20      4     20    1
   21      6     21    1
   22      6     22    1
   23      8     23    1
   24      9     24    1
   25     11     25    1
   26     12     26    1
#
#	File Created by: Spartan'20 Export
#

@<TRIPOS>MOLECULE
M0236
26 26
SMALL
USER_CHARGES


@<TRIPOS>ATOM
    1   C1        -2.901397141     1.344407022    -1.053682111     C.3   1  noname   -0.469046
    2   N2        -2.904491764     0.446063464     0.079776748   N.pl3   1  noname   -0.157257
    3   C3        -3.932791278    -0.568691003     0.093389970     C.3   1  noname   -0.439069
    4   C4        -1.724283860     0.193592412     0.715176857     C.2   1  noname    0.428170
    5   N5        -0.645831251     0.784805552     0.464591710     N.2   1  noname   -0.487973
    6   C6         0.495918450     0.480937390     1.289021081     C.3   1  noname   -0.241152
    7   C7         1.699885906     0.015008144     0.486164686     C.2   1  noname    0.384108
    8   C8         1.826200856     0.271141798    -0.871780383     C.2   1  noname   -0.277200
    9   C9         2.955784134    -0.141557402    -1.560307599     C.2   1  noname   -0.077615
   10   C10        3.976943818    -0.813864132    -0.913082882     C.2   1  noname   -0.295746
   11   C11        3.843465434    -1.064929822     0.439885227     C.2   1  noname    0.290692
   12   C12        2.723962622    -0.661216711     1.140072301     C.2   1  noname   -0.469422
   13   Cl13       5.113240921    -1.919510713     1.282788553      Cl   1  noname   -0.162701
   14   H14       -3.913115295     1.686564146    -1.233047335       H   1  noname    0.185740
   15   H15       -2.531744480     0.860929533    -1.957701774       H   1  noname    0.170834
   16   H16       -2.272719921     2.193139449    -0.839775443       H   1  noname    0.161137
   17   H17       -3.835169670    -1.271017367    -0.733145629       H   1  noname    0.166116
   18   H18       -3.892109527    -1.127027322     1.020695916       H   1  noname    0.144749
   19   H19       -4.908334333    -0.101175196     0.027865866       H   1  noname    0.171305
   20   H20       -1.812657206    -0.555698445     1.495127703       H   1  noname    0.068108
   21   H21        0.272563039    -0.270345936     2.048232443       H   1  noname    0.098849
   22   H22        0.779709489     1.383515469     1.825882020       H   1  noname    0.136548
   23   H23        1.038294344     0.788334201    -1.383385156       H   1  noname    0.158341
   24   H24        3.043753802     0.061500285    -2.612226834       H   1  noname    0.143151
   25   H25        4.853807980    -1.137742850    -1.441381326       H   1  noname    0.172704
   26   H26        2.651114931    -0.877161964     2.190845389       H   1  noname    0.196627


@<TRIPOS>BOND
    1      1      2    1
    2      2      3    1
    3      2      4    1
    4      4      5    2
    5      5      6    1
    6      6      7    1
    7      7      8    2
    8      8      9    1
    9      9     10    2
   10     10     11    1
   11     11     12    2
   12     11     13    1
   13     12      7    1
   14      1     14    1
   15      1     15    1
   16      1     16    1
   17      3     17    1
   18      3     18    1
   19      3     19    1
   20      4     20    1
   21      6     21    1
   22      6     22    1
   23      8     23    1
   24      9     24    1
   25     10     25    1
   26     12     26    1
#
#	File Created by: Spartan'20 Export
#

@<TRIPOS>MOLECULE
M0237
26 26
SMALL
USER_CHARGES


@<TRIPOS>ATOM
    1   C1        -2.903189652    -0.827175397     0.493139936     C.3   1  noname   -0.627939
    2   N2        -2.756831726     0.582129611     0.203712031   N.pl3   1  noname    0.233301
    3   C3        -3.931701037     1.223318919    -0.343241080     C.3   1  noname   -0.668794
    4   C4        -1.603415364     1.310559058     0.349488214     C.2   1  noname    0.155273
    5   N5        -0.396904579     1.002270940     0.504462802     N.2   1  noname   -0.643593
    6   C6         0.144818376    -0.332433839     0.438580572     C.3   1  noname    0.394616
    7   C7         1.618812714    -0.322866092     0.063430782     C.2   1  noname    0.061777
    8   C8         2.398400735     0.822386054     0.137757240     C.2   1  noname   -0.144706
    9   C9         3.748703651     0.774996111    -0.177614261     C.2   1  noname   -0.104936
   10   C10        4.338232430    -0.413416957    -0.570856048     C.2   1  noname   -0.256783
   11   C11        3.565550763    -1.562157392    -0.649488858     C.2   1  noname   -0.005228
   12   C12        2.219332981    -1.512812624    -0.335955165     C.2   1  noname   -0.344483
   13   H13       -2.171415510    -1.148342369     1.214468566       H   1  noname    0.187806
   14   H14       -2.823421634    -1.448826752    -0.395331486       H   1  noname    0.180118
   15   H15       -3.883215279    -0.992288599     0.927623888       H   1  noname    0.201868
   16   H16       -4.786277612     1.081326023     0.311476981       H   1  noname    0.190468
   17   H17       -3.763181918     2.285229713    -0.454051649       H   1  noname    0.201783
   18   H18       -4.185335498     0.821435620    -1.321747601       H   1  noname    0.205791
   19   H19       -1.811829671     2.370564166     0.330021396       H   1  noname    0.108246
   20   H20       -0.379148940    -0.960970568    -0.275930803       H   1  noname    0.011330
   21   H21        0.058172314    -0.820709441     1.407619379       H   1  noname    0.001661
   22   H22        1.942040682     1.745198737     0.436760832       H   1  noname    0.116821
   23   H23        4.339132182     1.671939035    -0.115138953       H   1  noname    0.133683
   24   H24        5.385005794    -0.446356251    -0.815729996       H   1  noname    0.156146
   25   H25        4.009878434    -2.492283391    -0.958072760       H   1  noname    0.118036
   26   H26        1.627787364    -2.410714315    -0.405383958       H   1  noname    0.137738


@<TRIPOS>BOND
    1      1      2    1
    2      2      3    1
    3      2      4    1
    4      4      5    2
    5      5      6    1
    6      6      7    1
    7      7      8    2
    8      8      9    1
    9      9     10    2
   10     10     11    1
   11     11     12    2
   12     12      7    1
   13      1     13    1
   14      1     14    1
   15      1     15    1
   16      3     16    1
   17      3     17    1
   18      3     18    1
   19      4     19    1
   20      6     20    1
   21      6     21    1
   22      8     22    1
   23      9     23    1
   24     10     24    1
   25     11     25    1
   26     12     26    1
#
#	File Created by: Spartan'20 Export
#

@<TRIPOS>MOLECULE
M0238
23 23
SMALL
USER_CHARGES


@<TRIPOS>ATOM
    1   C1        -3.283050301    -0.881958629     0.952131348     C.3   1  noname   -0.535287
    2   N2        -2.411372966     0.052841865     0.278358970   N.pl3   1  noname   -0.009268
    3   C3        -2.988517834     0.828648207    -0.798991286     C.3   1  noname   -0.535237
    4   C4        -1.071726301    -0.133072616     0.312474041     C.2   1  noname    0.377975
    5   N5        -0.267856605     0.401676349    -0.501445816     N.2   1  noname   -0.618520
    6   C6         1.107893708     0.239874889    -0.301548474     C.2   1  noname    0.473631
    7   C7         1.725614750     0.394624086     0.936190631     C.2   1  noname   -0.342758
    8   C8         3.096827722     0.240749602     1.072729161     C.2   1  noname   -0.131909
    9   C9         3.860829443    -0.058323246    -0.036494817     C.2   1  noname    0.075488
   10   C10        3.271789129    -0.196603579    -1.282875490     C.2   1  noname   -0.123069
   11   C11        1.906584676    -0.039834244    -1.409521875     C.2   1  noname   -0.321371
   12   Br12       5.747228938    -0.266744419     0.143010730      Br   1  noname   -0.128987
   13   H13       -2.760779881    -1.347662987     1.778910375       H   1  noname    0.168943
   14   H14       -3.637465047    -1.666197832     0.284921836       H   1  noname    0.188219
   15   H15       -4.144359168    -0.359658915     1.350575469       H   1  noname    0.184913
   16   H16       -3.085652021     0.245151904    -1.711959513       H   1  noname    0.185610
   17   H17       -2.362051571     1.682087422    -1.005382747       H   1  noname    0.185729
   18   H18       -3.970585294     1.170268052    -0.496065292       H   1  noname    0.193187
   19   H19       -0.742344393    -0.778361394     1.118711167       H   1  noname    0.063531
   20   H20        1.140256864     0.665832280     1.796600987       H   1  noname    0.164735
   21   H21        3.559099067     0.365416104     2.034379704       H   1  noname    0.153138
   22   H22        3.872576034    -0.421125634    -2.143635485       H   1  noname    0.149019
   23   H23        1.437061052    -0.137627266    -2.371073623       H   1  noname    0.182289


@<TRIPOS>BOND
    1      1      2    1
    2      2      3    1
    3      2      4    1
    4      4      5    2
    5      5      6    1
    6      6      7    2
    7      7      8    1
    8      8      9    2
    9      9     10    1
   10     10     11    2
   11      9     12    1
   12     11      6    1
   13      1     13    1
   14      1     14    1
   15      1     15    1
   16      3     16    1
   17      3     17    1
   18      3     18    1
   19      4     19    1
   20      7     20    1
   21      8     21    1
   22     10     22    1
   23     11     23    1
#
#	File Created by: Spartan'20 Export
#

@<TRIPOS>MOLECULE
M0239
24 24
SMALL
USER_CHARGES


@<TRIPOS>ATOM
    1   C1         2.571071230    -2.585112695     0.904062584     C.3   1  noname   -0.575289
    2   N2         2.306498958    -1.313014748     0.270093906   N.pl3   1  noname    0.038360
    3   C3         3.417488470    -0.390635882     0.158268992     C.3   1  noname   -0.550757
    4   C4         1.042821864    -0.847569140     0.193110475     C.2   1  noname    0.335362
    5   N5         0.749476771     0.359899273    -0.045081563     N.2   1  noname   -0.632998
    6   C6        -0.588179409     0.711530703    -0.220546233     C.2   1  noname    0.573644
    7   C7        -1.480441807    -0.030032338    -0.995479813     C.2   1  noname   -0.402573
    8   C8        -2.792936586     0.377437553    -1.142554184     C.2   1  noname   -0.123303
    9   C9        -3.236724195     1.539994949    -0.528501028     C.2   1  noname    0.015839
   10   C10       -2.346030285     2.300452386     0.228035101     C.2   1  noname   -0.111173
   11   C11       -1.039105604     1.894487720     0.371912973     C.2   1  noname   -0.390900
   12   C12       -4.605095606     1.966288655    -0.687203989     C.1   1  noname    0.284285
   13   N13       -5.684684689     2.300309878    -0.813905328     N.1   1  noname   -0.440287
   14   H14        3.371355270    -3.097052509     0.382819874       H   1  noname    0.194440
   15   H15        1.689329439    -3.210782247     0.864040201       H   1  noname    0.179958
   16   H16        2.861794407    -2.467630629     1.945409181       H   1  noname    0.199800
   17   H17        3.181920667     0.371914045    -0.566202637       H   1  noname    0.196625
   18   H18        4.295316582    -0.935894891    -0.166359433       H   1  noname    0.195782
   19   H19        3.636402560     0.089753534     1.108935389       H   1  noname    0.190759
   20   H20        0.288125516    -1.609235417     0.348851224       H   1  noname    0.084052
   21   H21       -1.138964364    -0.909855994    -1.509847564       H   1  noname    0.179730
   22   H22       -3.470848176    -0.200599752    -1.742801952       H   1  noname    0.180906
   23   H23       -2.684143259     3.206798521     0.695959420       H   1  noname    0.176605
   24   H24       -0.344447752     2.478549025     0.946984405       H   1  noname    0.201131


@<TRIPOS>BOND
    1      1      2    1
    2      2      3    1
    3      2      4    1
    4      4      5    2
    5      5      6    1
    6      6      7    2
    7      7      8    1
    8      8      9    2
    9      9     10    1
   10     10     11    2
   11      9     12    1
   12     12     13    3
   13     11      6    1
   14      1     14    1
   15      1     15    1
   16      1     16    1
   17      3     17    1
   18      3     18    1
   19      3     19    1
   20      4     20    1
   21      7     21    1
   22      8     22    1
   23     10     23    1
   24     11     24    1
#
#	File Created by: Spartan'20 Export
#

@<TRIPOS>MOLECULE
M0240
26 26
SMALL
USER_CHARGES


@<TRIPOS>ATOM
    1   C1         3.646772358     1.021541427     0.646476866     C.3   1  noname   -0.523537
    2   N2         3.075159747    -0.028790696    -0.169620163   N.pl3   1  noname    0.005887
    3   C3         3.943051574    -1.134669465    -0.505638432     C.3   1  noname   -0.532681
    4   C4         1.734109361    -0.202140859    -0.187981800     C.2   1  noname    0.364497
    5   N5         0.916609795     0.555509355     0.406514334     N.2   1  noname   -0.635598
    6   C6        -0.452989259     0.354584843     0.215527903     C.2   1  noname    0.547543
    7   C7        -1.025962516     0.148245780    -1.037418231     C.2   1  noname   -0.390163
    8   C8        -2.392394066    -0.030197797    -1.167142424     C.2   1  noname   -0.077920
    9   C9        -3.210593020     0.002881343    -0.052315187     C.2   1  noname   -0.091227
   10   C10       -2.650125092     0.227899265     1.199478486     C.2   1  noname   -0.078511
   11   C11       -1.290431318     0.409139250     1.330569829     C.2   1  noname   -0.365022
   12   C12       -4.695541645    -0.137194078    -0.201400271     C.3   1  noname    0.568771
   13   F13       -5.254907126    -0.670680694     0.874731689       F   1  noname   -0.208880
   14   F14       -5.293889077     1.031484352    -0.397090329       F   1  noname   -0.205734
   15   F15       -5.021286502    -0.903120198    -1.233126543       F   1  noname   -0.212219
   16   H16        4.613306561     1.295955331     0.241870326       H   1  noname    0.187176
   17   H17        3.778115547     0.702146946     1.678174779       H   1  noname    0.184486
   18   H18        2.995952395     1.880518702     0.634898004       H   1  noname    0.187691
   19   H19        3.436038772    -1.818301290    -1.174427842       H   1  noname    0.170117
   20   H20        4.257192050    -1.689677909     0.376238034       H   1  noname    0.188033
   21   H21        4.828541138    -0.766104101    -1.010505844       H   1  noname    0.184436
   22   H22        1.414503094    -1.054982709    -0.776057663       H   1  noname    0.067113
   23   H23       -0.406408220     0.154736119    -1.916011988       H   1  noname    0.168328
   24   H24       -2.815933691    -0.191052819    -2.141562801       H   1  noname    0.156766
   25   H25       -3.276819820     0.256377161     2.070718441       H   1  noname    0.154739
   26   H26       -0.852071039     0.585892739     2.295100827       H   1  noname    0.185911


@<TRIPOS>BOND
    1      1      2    1
    2      2      3    1
    3      2      4    1
    4      4      5    2
    5      5      6    1
    6      6      7    2
    7      7      8    1
    8      8      9    2
    9      9     10    1
   10     10     11    2
   11      9     12    1
   12     12     13    1
   13     12     14    1
   14     12     15    1
   15     11      6    1
   16      1     16    1
   17      1     17    1
   18      1     18    1
   19      3     19    1
   20      3     20    1
   21      3     21    1
   22      4     22    1
   23      7     23    1
   24      8     24    1
   25     10     25    1
   26     11     26    1
#
#	File Created by: Spartan'20 Export
#

@<TRIPOS>MOLECULE
M0241
23 23
SMALL
USER_CHARGES


@<TRIPOS>ATOM
    1   C1        -3.379657349     0.855200888    -0.338871576     C.3   1  noname   -0.470776
    2   N2        -2.406054181    -0.108300752     0.122857925   N.pl3   1  noname   -0.057162
    3   C3        -2.773769335    -0.901537395     1.275921182     C.3   1  noname   -0.500494
    4   C4        -1.091025358     0.107946322    -0.133607277     C.2   1  noname    0.377174
    5   N5        -0.151539887    -0.418998475     0.521465342     N.2   1  noname   -0.596784
    6   C6         1.169889193    -0.225279679     0.088868249     C.2   1  noname    0.378853
    7   C7         1.567943508    -0.356813172    -1.237957204     C.2   1  noname   -0.267039
    8   C8         2.892256969    -0.171730191    -1.608741941     C.2   1  noname   -0.301622
    9   C9         3.817285380     0.133201060    -0.639764207     C.2   1  noname    0.391782
   10   C10        3.461613320     0.251522766     0.688464561     C.2   1  noname   -0.302020
   11   C11        2.141173885     0.063617765     1.046003982     C.2   1  noname   -0.233696
   12   F12        5.093701316     0.305449724    -0.987429213       F   1  noname   -0.245334
   13   H13       -3.563443232     1.639635478     0.393300582       H   1  noname    0.174095
   14   H14       -4.319848933     0.356350187    -0.545766858       H   1  noname    0.171215
   15   H15       -3.037762924     1.317767792    -1.255560929       H   1  noname    0.154828
   16   H16       -3.782430398    -1.272099763     1.140318010       H   1  noname    0.184815
   17   H17       -2.733921207    -0.323033402     2.196582875       H   1  noname    0.177494
   18   H18       -2.095894310    -1.735440322     1.369907615       H   1  noname    0.179238
   19   H19       -0.916667990     0.770241275    -0.973879259       H   1  noname    0.064863
   20   H20        0.847216330    -0.634000138    -1.986709239       H   1  noname    0.159381
   21   H21        3.206206058    -0.276857258    -2.631095464       H   1  noname    0.194204
   22   H22        4.213476684     0.480813776     1.420966311       H   1  noname    0.192949
   23   H23        1.841252464     0.142343513     2.074726533       H   1  noname    0.174035


@<TRIPOS>BOND
    1      1      2    1
    2      2      3    1
    3      2      4    1
    4      4      5    2
    5      5      6    1
    6      6      7    2
    7      7      8    1
    8      8      9    2
    9      9     10    1
   10     10     11    2
   11      9     12    1
   12     11      6    1
   13      1     13    1
   14      1     14    1
   15      1     15    1
   16      3     16    1
   17      3     17    1
   18      3     18    1
   19      4     19    1
   20      7     20    1
   21      8     21    1
   22     10     22    1
   23     11     23    1
#
#	File Created by: Spartan'20 Export
#

@<TRIPOS>MOLECULE
M0242
25 25
SMALL
USER_CHARGES


@<TRIPOS>ATOM
    1   C1         3.508421881    -0.931988136     0.052182565     C.3   1  noname   -0.536282
    2   N2         2.831262764     0.301030314    -0.294298166   N.pl3   1  noname    0.045576
    3   C3         3.579299601     1.268202364    -1.066792458     C.3   1  noname   -0.557367
    4   C4         1.486332544     0.357792944    -0.256677075     C.2   1  noname    0.350195
    5   N5         0.751848860    -0.599538797     0.128444149     N.2   1  noname   -0.642267
    6   C6        -0.619944146    -0.398396475     0.243155174     C.2   1  noname    0.564580
    7   C7        -1.182559668     0.744142473     0.816922798     C.2   1  noname   -0.387294
    8   C8        -2.553495609     0.883673539     0.915549679     C.2   1  noname   -0.057007
    9   C9        -3.368884817    -0.129753829     0.449895241     C.2   1  noname   -0.135009
   10   C10       -2.837365012    -1.287910225    -0.101016607     C.2   1  noname   -0.060874
   11   C11       -1.470642567    -1.418375598    -0.194441428     C.2   1  noname   -0.357971
   12   N12       -4.808492967     0.013081215     0.552958565       N   1  noname    0.878727
   13   O13       -5.489242290    -0.883336254     0.149896130       O   1  noname   -0.494339
   14   O14       -5.237249023     1.021454015     1.032697086     O.2   1  noname   -0.499262
   15   H15        3.549205529    -1.616798516    -0.791241825       H   1  noname    0.187513
   16   H16        4.519536668    -0.700479531     0.363141413       H   1  noname    0.191911
   17   H17        2.987755363    -1.415890195     0.862633447       H   1  noname    0.190257
   18   H18        4.490448922     1.532285954    -0.542750651       H   1  noname    0.188286
   19   H19        3.847617715     0.883155222    -2.047633621       H   1  noname    0.195701
   20   H20        2.994870980     2.168797544    -1.201114406       H   1  noname    0.176475
   21   H21        1.079252134     1.306532609    -0.584892123       H   1  noname    0.072075
   22   H22       -0.544932463     1.512021399     1.215907004       H   1  noname    0.170911
   23   H23       -2.987354097     1.758825754     1.355810977       H   1  noname    0.165527
   24   H24       -3.491113658    -2.062649287    -0.446185826       H   1  noname    0.163882
   25   H25       -1.034576646    -2.305878503    -0.612150043       H   1  noname    0.186056


@<TRIPOS>BOND
    1      1      2    1
    2      2      3    1
    3      2      4    1
    4      4      5    2
    5      5      6    1
    6      6      7    2
    7      7      8    1
    8      8      9    2
    9      9     10    1
   10     10     11    2
   11      9     12    1
   12     12     13    1
   13     12     14    2
   14     11      6    1
   15      1     15    1
   16      1     16    1
   17      1     17    1
   18      3     18    1
   19      3     19    1
   20      3     20    1
   21      4     21    1
   22      7     22    1
   23      8     23    1
   24     10     24    1
   25     11     25    1
#
#	File Created by: Spartan'20 Export
#

@<TRIPOS>MOLECULE
M0243
31 31
SMALL
USER_CHARGES


@<TRIPOS>ATOM
    1   C1         4.699008601    -0.620485062    -0.008232377     C.3   1  noname   -0.498575
    2   N2         3.837475390    -0.211779220     1.079932432   N.pl3   1  noname   -0.098876
    3   C3         4.443776106     0.593518577     2.114741100     C.3   1  noname   -0.496421
    4   C4         2.504545379    -0.072183882     0.838403710     C.2   1  noname    0.421238
    5   N5         1.953629107    -0.375284921    -0.252211740     N.2   1  noname   -0.611760
    6   C6         0.551416059    -0.308508263    -0.345235935     C.2   1  noname    0.393046
    7   C7        -0.019916095     0.234681451    -1.490166011     C.2   1  noname   -0.248693
    8   C8        -1.387674289     0.325085638    -1.645241215     C.2   1  noname   -0.324470
    9   C9        -2.268058252    -0.149853833    -0.663945744     C.2   1  noname    0.377763
   10   C10       -1.691353956    -0.710053682     0.475606727     C.2   1  noname   -0.317970
   11   C11       -0.315218294    -0.793609037     0.623237122     C.2   1  noname   -0.288332
   12   N12       -3.658146028    -0.096983471    -0.839392096   N.pl3   1  noname   -0.201733
   13   C13       -4.488616788    -0.292767784     0.327736065     C.3   1  noname   -0.425547
   14   C14       -4.177172659     0.831330726    -1.820531658     C.3   1  noname   -0.423099
   15   H15        4.224832805    -1.411701116    -0.567284244       H   1  noname    0.179906
   16   H16        5.634181153    -0.982472024     0.401949665       H   1  noname    0.185420
   17   H17        4.910627072     0.199993781    -0.691033150       H   1  noname    0.178355
   18   H18        4.781105358     1.561884213     1.745838004       H   1  noname    0.179171
   19   H19        5.298767997     0.073019930     2.529023259       H   1  noname    0.180295
   20   H20        3.735623606     0.763513396     2.916084127       H   1  noname    0.161329
   21   H21        1.949657471     0.309544132     1.687758315       H   1  noname    0.054154
   22   H22        0.628944712     0.600165864    -2.265325635       H   1  noname    0.169396
   23   H23       -1.762631726     0.765389447    -2.547709024       H   1  noname    0.182254
   24   H24       -2.303079069    -1.105176674     1.262135522       H   1  noname    0.184614
   25   H25        0.080030189    -1.270192949     1.503692751       H   1  noname    0.153598
   26   H26       -4.299644611     0.436848277     1.116681814       H   1  noname    0.146064
   27   H27       -5.527466926    -0.217818358     0.037757753       H   1  noname    0.179200
   28   H28       -4.344382027    -1.283279807     0.740327005       H   1  noname    0.141012
   29   H29       -3.890175976     1.865239691    -1.625117710       H   1  noname    0.148566
   30   H30       -3.843333080     0.568216625    -2.816133485       H   1  noname    0.141966
   31   H31       -5.256751228     0.773718335    -1.823345347       H   1  noname    0.178131


@<TRIPOS>BOND
    1      1      2    1
    2      2      3    1
    3      2      4    1
    4      4      5    2
    5      5      6    1
    6      6      7    2
    7      7      8    1
    8      8      9    2
    9      9     10    1
   10     10     11    2
   11      9     12    1
   12     12     13    1
   13     12     14    1
   14     11      6    1
   15      1     15    1
   16      1     16    1
   17      1     17    1
   18      3     18    1
   19      3     19    1
   20      3     20    1
   21      4     21    1
   22      7     22    1
   23      8     23    1
   24     10     24    1
   25     11     25    1
   26     13     26    1
   27     13     27    1
   28     13     28    1
   29     14     29    1
   30     14     30    1
   31     14     31    1
#
#	File Created by: Spartan'20 Export
#

@<TRIPOS>MOLECULE
M0244
27 27
SMALL
USER_CHARGES


@<TRIPOS>ATOM
    1   C1        -3.853718897     1.259871672    -0.190261223     C.3   1  noname   -0.502206
    2   N2        -3.349412754    -0.094935639    -0.240522478   N.pl3   1  noname   -0.056328
    3   C3        -4.168567912    -1.068083290    -0.923923635     C.3   1  noname   -0.465897
    4   C4        -2.008260179    -0.299402465    -0.152917364     C.2   1  noname    0.369400
    5   N5        -1.172134227     0.617012140     0.066262922     N.2   1  noname   -0.593978
    6   C6         0.178057679     0.274443244     0.258584377     C.2   1  noname    0.358535
    7   C7         0.598813540    -0.781037365     1.068676870     C.2   1  noname   -0.206204
    8   C8         1.940276581    -1.063067529     1.232634870     C.2   1  noname   -0.390323
    9   C9         2.905721464    -0.290698995     0.599936635     C.2   1  noname    0.490463
   10   C10        2.504366640     0.775447548    -0.190350656     C.2   1  noname   -0.330446
   11   C11        1.153790480     1.052252770    -0.345747103     C.2   1  noname   -0.260832
   12   O12        4.193840018    -0.643488142     0.824581580     O.3   1  noname   -0.364290
   13   C13        5.219453367     0.054762301     0.181755081     C.3   1  noname   -0.253312
   14   H14       -4.904501875     1.234126914     0.071555135       H   1  noname    0.183895
   15   H15       -3.313290295     1.817911638     0.557464404       H   1  noname    0.178666
   16   H16       -3.743500401     1.771301735    -1.144644250       H   1  noname    0.176198
   17   H17       -4.279005779    -0.846388577    -1.984539013       H   1  noname    0.171648
   18   H18       -3.732851146    -2.054773558    -0.826343793       H   1  noname    0.151877
   19   H19       -5.156042000    -1.092398130    -0.478994220       H   1  noname    0.168197
   20   H20       -1.721732429    -1.338701725    -0.269121989       H   1  noname    0.063953
   21   H21       -0.129426858    -1.371298751     1.597220175       H   1  noname    0.147800
   22   H22        2.260411926    -1.874249827     1.860698866       H   1  noname    0.195671
   23   H23        3.222604036     1.401190851    -0.684439018       H   1  noname    0.177138
   24   H24        0.845394035     1.884040631    -0.952562808       H   1  noname    0.178590
   25   H25        6.144013152    -0.411541889     0.488710395       H   1  noname    0.160675
   26   H26        5.129426516    -0.012477676    -0.898085713       H   1  noname    0.121426
   27   H27        5.236275316     1.100182118     0.474371954       H   1  noname    0.129684


@<TRIPOS>BOND
    1      1      2    1
    2      2      3    1
    3      2      4    1
    4      4      5    2
    5      5      6    1
    6      6      7    2
    7      7      8    1
    8      8      9    2
    9      9     10    1
   10     10     11    2
   11      9     12    1
   12     12     13    1
   13     11      6    1
   14      1     14    1
   15      1     15    1
   16      1     16    1
   17      3     17    1
   18      3     18    1
   19      3     19    1
   20      4     20    1
   21      7     21    1
   22      8     22    1
   23     10     23    1
   24     11     24    1
   25     13     25    1
   26     13     26    1
   27     13     27    1
#
#	File Created by: Spartan'20 Export
#

@<TRIPOS>MOLECULE
M0245
23 23
SMALL
USER_CHARGES


@<TRIPOS>ATOM
    1   C1         3.112135420    -1.158102499    -1.069274123     C.3   1  noname   -0.507073
    2   N2         2.352943352    -0.091142550    -0.459075785   N.pl3   1  noname   -0.049922
    3   C3         3.046686280     0.719822674     0.517659036     C.3   1  noname   -0.524518
    4   C4         1.001469345    -0.199921824    -0.383491793     C.2   1  noname    0.402866
    5   N5         0.290291313     0.442229574     0.435487932     N.2   1  noname   -0.634426
    6   C6        -1.106401040     0.338756667     0.346421728     C.2   1  noname    0.513077
    7   C7        -1.802484824     0.436227173    -0.855113203     C.2   1  noname   -0.365443
    8   C8        -3.185959277     0.337421547    -0.877867619     C.2   1  noname   -0.056275
    9   C9        -3.896213001     0.151064955     0.293196768     C.2   1  noname   -0.247594
   10   C10       -3.208063379     0.074278605     1.497077536     C.2   1  noname   -0.036164
   11   C11       -1.831009487     0.174779433     1.525937530     C.2   1  noname   -0.361741
   12   H12        3.998187243    -0.753684130    -1.543323303       H   1  noname    0.179731
   13   H13        2.519378681    -1.648379286    -1.831299111       H   1  noname    0.163616
   14   H14        3.426197727    -1.907635704    -0.344239289       H   1  noname    0.181016
   15   H15        2.481573916     1.617962466     0.708169663       H   1  noname    0.187817
   16   H16        3.181713767     0.190759619     1.459446506       H   1  noname    0.182928
   17   H17        4.021387517     0.985621939     0.125745800       H   1  noname    0.189821
   18   H18        0.581470493    -0.887192615    -1.107347137       H   1  noname    0.055358
   19   H19       -1.264982441     0.618866953    -1.768739343       H   1  noname    0.152569
   20   H20       -3.706012477     0.417623591    -1.816254394       H   1  noname    0.129309
   21   H21       -4.968852545     0.079338902     0.274188424       H   1  noname    0.146207
   22   H22       -3.749542240    -0.061077323     2.417538429       H   1  noname    0.122464
   23   H23       -1.293914343     0.122381832     2.455155748       H   1  noname    0.176375


@<TRIPOS>BOND
    1      1      2    1
    2      2      3    1
    3      2      4    1
    4      4      5    2
    5      5      6    1
    6      6      7    2
    7      7      8    1
    8      8      9    2
    9      9     10    1
   10     10     11    2
   11     11      6    1
   12      1     12    1
   13      1     13    1
   14      1     14    1
   15      3     15    1
   16      3     16    1
   17      3     17    1
   18      4     18    1
   19      7     19    1
   20      8     20    1
   21      9     21    1
   22     10     22    1
   23     11     23    1
#
#	File Created by: Spartan'20 Export
#

@<TRIPOS>MOLECULE
M0246
23 23
SMALL
USER_CHARGES


@<TRIPOS>ATOM
    1   C1        -2.776534787    -0.578763316     1.408727237     C.3   1  noname   -0.535987
    2   N2        -2.366919974     0.102735837     0.200248181   N.pl3   1  noname    0.054638
    3   C3        -3.379184389     0.328270129    -0.805276632     C.3   1  noname   -0.496954
    4   C4        -1.059101268     0.162800536    -0.125914171     C.2   1  noname    0.274100
    5   N5        -0.133028477    -0.295105405     0.599610991     N.2   1  noname   -0.605522
    6   C6         1.194328308    -0.115177998     0.198449778     C.2   1  noname    0.569142
    7   C7         1.934197494    -1.242915492    -0.166736144     C.2   1  noname   -0.415899
    8   C8         3.259842820    -1.152128284    -0.532905308     C.2   1  noname   -0.040515
    9   C9         3.901078702     0.078632196    -0.533525407     C.2   1  noname   -0.246155
   10   C10        3.199485135     1.206294431    -0.159480057     C.2   1  noname   -0.042599
   11   C11        1.863724153     1.106548773     0.203445327     C.2   1  noname   -0.186586
   12   Br12       0.983285021     2.712252302     0.752712082      Br   1  noname   -0.079359
   13   H13       -3.719564372    -0.163786436     1.744306882       H   1  noname    0.186680
   14   H14       -2.905045561    -1.645876109     1.244810462       H   1  noname    0.182637
   15   H15       -2.030149123    -0.435769824     2.173734535       H   1  noname    0.183739
   16   H16       -4.207593036     0.882399039    -0.379943376       H   1  noname    0.165703
   17   H17       -2.969098473     0.910037922    -1.620179988       H   1  noname    0.162657
   18   H18       -3.765386399    -0.605795461    -1.209450335       H   1  noname    0.176971
   19   H19       -0.869418262     0.655256044    -1.071924887       H   1  noname    0.077049
   20   H20        1.433178330    -2.192946876    -0.151529852       H   1  noname    0.198567
   21   H21        3.795746287    -2.040767942    -0.814366969       H   1  noname    0.134819
   22   H22        4.935268990     0.158704995    -0.813035536       H   1  noname    0.157126
   23   H23        3.680888881     2.165100937    -0.141776815       H   1  noname    0.125747


@<TRIPOS>BOND
    1      1      2    1
    2      2      3    1
    3      2      4    1
    4      4      5    2
    5      5      6    1
    6      6      7    2
    7      7      8    1
    8      8      9    2
    9      9     10    1
   10     10     11    2
   11     11     12    1
   12     11      6    1
   13      1     13    1
   14      1     14    1
   15      1     15    1
   16      3     16    1
   17      3     17    1
   18      3     18    1
   19      4     19    1
   20      7     20    1
   21      8     21    1
   22      9     22    1
   23     10     23    1
#
#	File Created by: Spartan'20 Export
#

@<TRIPOS>MOLECULE
M0247
12 11
SMALL
USER_CHARGES


@<TRIPOS>ATOM
    1   C1        -0.240683217     1.344999216     0.044139263     C.3   1  noname   -0.514429
    2   N2        -0.100187745    -0.087045400    -0.100671383   N.pl3   1  noname    0.151303
    3   C3         0.959676539    -0.729209883     0.637498043     C.3   1  noname   -0.647056
    4   C4        -0.942826501    -0.783108689    -0.891181684     C.2   1  noname    0.358986
    5   O5        -1.846225752    -0.325389623    -1.528096844     O.2   1  noname   -0.543338
    6   H6        -1.059610881     1.680265403    -0.570905409       H   1  noname    0.203303
    7   H7        -0.440526092     1.605141365     1.079704476       H   1  noname    0.164925
    8   H8         0.670377030     1.848467849    -0.266040908       H   1  noname    0.164864
    9   H9         0.954753884    -1.794304065     0.446896219       H   1  noname    0.191692
   10   H10        1.928350196    -0.335249488     0.345550383       H   1  noname    0.200762
   11   H11        0.837422966    -0.573754617     1.705129595       H   1  noname    0.200607
   12   H12       -0.720520428    -1.850812067    -0.902021753       H   1  noname    0.068381


@<TRIPOS>BOND
    1      1      2    1
    2      2      3    1
    3      2      4    1
    4      4      5    2
    5      1      6    1
    6      1      7    1
    7      1      8    1
    8      3      9    1
    9      3     10    1
   10      3     11    1
   11      4     12    1
#
#	File Created by: Spartan'20 Export
#

@<TRIPOS>MOLECULE
M0248
15 14
SMALL
USER_CHARGES


@<TRIPOS>ATOM
    1   C1        -0.942959590     1.071536040     0.245038519     C.3   1  noname   -0.483473
    2   N2        -0.522033929    -0.262660002    -0.129270474     N.3   1  noname   -0.140658
    3   C3        -1.070594478    -0.658052582    -1.408331577     C.3   1  noname   -0.599341
    4   C4         0.918959476    -0.422568084    -0.108821001     C.3   1  noname   -0.031077
    5   C5         1.495913536    -0.285398920     1.240988228     C.1   1  noname    0.001224
    6   C6         1.987911507    -0.177579593     2.315375276     C.1   1  noname   -0.449100
    7   H7        -0.567670881     1.315802742     1.229340867       H   1  noname    0.194137
    8   H8        -2.025259547     1.110344928     0.278118128       H   1  noname    0.184824
    9   H9        -0.595396870     1.836502622    -0.456411086       H   1  noname    0.159846
   10   H10       -2.151144011    -0.587656679    -1.375242861       H   1  noname    0.222341
   11   H11       -0.810354428    -1.688707186    -1.620657317       H   1  noname    0.193513
   12   H12       -0.716154432    -0.038199681    -2.237816991       H   1  noname    0.175829
   13   H13        1.420610047     0.287332234    -0.773036203       H   1  noname    0.118159
   14   H14        1.156714945    -1.414930970    -0.474183942       H   1  noname    0.140247
   15   H15        2.421458653    -0.085764869     3.274910434       H   1  noname    0.313529


@<TRIPOS>BOND
    1      1      2    1
    2      2      3    1
    3      2      4    1
    4      4      5    1
    5      5      6    3
    6      1      7    1
    7      1      8    1
    8      1      9    1
    9      3     10    1
   10      3     11    1
   11      3     12    1
   12      4     13    1
   13      4     14    1
   14      6     15    1
#
#	File Created by: Spartan'20 Export
#

@<TRIPOS>MOLECULE
M0249
14 13
SMALL
USER_CHARGES


@<TRIPOS>ATOM
    1   C1        -0.305117104     0.966343399    -0.966808831     C.3   1  noname   -0.522925
    2   N2        -0.057571773    -0.304135067    -0.312304987     N.3   1  noname   -0.117253
    3   C3        -1.287247394    -0.984579420     0.039240805     C.3   1  noname   -0.569320
    4   C4         0.816562243    -0.184587704     0.830840962     C.3   1  noname   -0.204568
    5   C5         2.184724303     0.217002026     0.439754464     C.1   1  noname    0.333751
    6   N6         3.238362696     0.533675882     0.162606915     N.1   1  noname   -0.436524
    7   H7        -0.830977999     1.676510453    -0.322949407       H   1  noname    0.177060
    8   H8         0.629501048     1.413240468    -1.279181743       H   1  noname    0.203749
    9   H9        -0.906114653     0.799705039    -1.851526812       H   1  noname    0.201049
   10   H10       -1.888740281    -1.117026037    -0.851119965       H   1  noname    0.218220
   11   H11       -1.883826927    -0.437731219     0.774724558       H   1  noname    0.180914
   12   H12       -1.065550873    -1.966393076     0.440848627       H   1  noname    0.194211
   13   H13        0.461340011     0.533679974     1.572894505       H   1  noname    0.160035
   14   H14        0.894656702    -1.145704719     1.322980909       H   1  noname    0.181600


@<TRIPOS>BOND
    1      1      2    1
    2      2      3    1
    3      2      4    1
    4      4      5    1
    5      5      6    3
    6      1      7    1
    7      1      8    1
    8      1      9    1
    9      3     10    1
   10      3     11    1
   11      3     12    1
   12      4     13    1
   13      4     14    1
#
#	File Created by: Spartan'20 Export
#

@<TRIPOS>MOLECULE
M0250
17 16
SMALL
USER_CHARGES


@<TRIPOS>ATOM
    1   C1        -1.534975178    -1.377624211    -0.645965348     C.3   1  noname   -0.521962
    2   N2        -0.748526470    -0.177053957    -0.465631970     N.3   1  noname   -0.204247
    3   C3        -1.334262884     0.692750624     0.532648955     C.3   1  noname   -0.417098
    4   C4         0.646498499    -0.478612645    -0.195925445     C.3   1  noname   -0.053610
    5   C5         1.532990924     0.724534053    -0.370842042     C.2   1  noname   -0.101183
    6   C6         2.413089666     1.150487118     0.513822954     C.2   1  noname   -0.488117
    7   H7        -1.126071586    -1.970345130    -1.456682671       H   1  noname    0.176452
    8   H8        -2.552941586    -1.111335505    -0.907957918       H   1  noname    0.200892
    9   H9        -1.570548542    -2.005095759     0.250439047       H   1  noname    0.156668
   10   H10       -2.344679193     0.954644381     0.238967429       H   1  noname    0.164958
   11   H11       -0.760348309     1.606663028     0.615679451       H   1  noname    0.171736
   12   H12       -1.377415505     0.228558951     1.523444662       H   1  noname    0.146606
   13   H13        0.958874582    -1.236996854    -0.909039950       H   1  noname    0.118802
   14   H14        0.789496346    -0.904551587     0.802441007       H   1  noname    0.114456
   15   H15        1.423230703     1.238978856    -1.312082283       H   1  noname    0.146694
   16   H16        2.542208385     0.664366918     1.466375312       H   1  noname    0.195253
   17   H17        3.043380149     2.000631719     0.320308809       H   1  noname    0.193703


@<TRIPOS>BOND
    1      1      2    1
    2      2      3    1
    3      2      4    1
    4      4      5    1
    5      5      6    2
    6      1      7    1
    7      1      8    1
    8      1      9    1
    9      3     10    1
   10      3     11    1
   11      3     12    1
   12      4     13    1
   13      4     14    1
   14      5     15    1
   15      6     16    1
   16      6     17    1
#
#	File Created by: Spartan'20 Export
#

@<TRIPOS>MOLECULE
M0251
17 16
SMALL
USER_CHARGES


@<TRIPOS>ATOM
    1   C1        -1.669831562    -0.990178167     0.666141731     C.3   1  noname   -0.569436
    2   N2        -0.803509636    -0.095627285    -0.075647833     N.3   1  noname   -0.213405
    3   C3        -1.161628164     1.289412567     0.155713640     C.3   1  noname   -0.480164
    4   C4         0.598173155    -0.369315746     0.166697614     C.3   1  noname    0.086136
    5   C5         1.470682124     0.115472810    -0.999836807     C.3   1  noname   -0.400081
    6   C6         2.888478649    -0.222233506    -0.788794718     C.1   1  noname    0.346473
    7   N7         3.977851180    -0.489164331    -0.613257641     N.1   1  noname   -0.455957
    8   H8        -2.702043520    -0.795365982     0.400885725       H   1  noname    0.220174
    9   H9        -1.572292583    -0.880031151     1.749516589       H   1  noname    0.171326
   10   H10       -1.448266928    -2.018657539     0.407718218       H   1  noname    0.190033
   11   H11       -2.200435901     1.442933913    -0.110005324       H   1  noname    0.195705
   12   H12       -1.027556234     1.591098844     1.198202534       H   1  noname    0.166397
   13   H13       -0.568948517     1.950412606    -0.464044785       H   1  noname    0.162742
   14   H14        0.728540452    -1.440288741     0.256438953       H   1  noname    0.114629
   15   H15        0.952500817     0.072606875     1.100527758       H   1  noname    0.086043
   16   H16        1.134480793    -0.348821087    -1.918396860       H   1  noname    0.179134
   17   H17        1.403805874     1.187745919    -1.131858793       H   1  noname    0.200251


@<TRIPOS>BOND
    1      1      2    1
    2      2      3    1
    3      2      4    1
    4      4      5    1
    5      5      6    1
    6      6      7    3
    7      1      8    1
    8      1      9    1
    9      1     10    1
   10      3     11    1
   11      3     12    1
   12      3     13    1
   13      4     14    1
   14      4     15    1
   15      5     16    1
   16      5     17    1
#
#	File Created by: Spartan'20 Export
#

@<TRIPOS>MOLECULE
M0252
19 18
SMALL
USER_CHARGES


@<TRIPOS>ATOM
    1   C1        -2.161107211     0.727617595     0.565218838     C.3   1  noname   -0.515086
    2   N2        -1.058505304     0.354946140    -0.295866001     N.3   1  noname   -0.293159
    3   C3        -1.434245213    -0.734044459    -1.174105708     C.3   1  noname   -0.454787
    4   C4         0.147832309     0.082103812     0.467939369     C.3   1  noname    0.159440
    5   C5         1.408333103     0.115511711    -0.396492735     C.3   1  noname   -0.183148
    6   C6         2.702653634     0.085283021     0.402015202     C.3   1  noname   -0.320975
    7   Cl7        2.967091470    -1.485900803     1.245858608      Cl   1  noname   -0.178402
    8   H8        -2.458056089    -0.069861629     1.253065714       H   1  noname    0.156904
    9   H9        -3.023534213     0.986622406    -0.038259285       H   1  noname    0.207146
   10   H10       -1.893956578     1.597932557     1.153350058       H   1  noname    0.170721
   11   H11       -2.315447084    -0.454558866    -1.739385262       H   1  noname    0.193203
   12   H12       -1.657349329    -1.657824879    -0.632344639       H   1  noname    0.158196
   13   H13       -0.646607439    -0.943265204    -1.885549193       H   1  noname    0.146033
   14   H14        0.081066854    -0.868119259     1.001908184       H   1  noname    0.059996
   15   H15        0.238206898     0.858065439     1.221737668       H   1  noname    0.079926
   16   H16        1.421334749    -0.699516018    -1.110471095       H   1  noname    0.145219
   17   H17        1.403463409     1.041236029    -0.966092606       H   1  noname    0.099502
   18   H18        3.557850442     0.218833631    -0.241822438       H   1  noname    0.189733
   19   H19        2.720975593     0.844938776     1.169295320       H   1  noname    0.179538


@<TRIPOS>BOND
    1      1      2    1
    2      2      3    1
    3      2      4    1
    4      4      5    1
    5      5      6    1
    6      6      7    1
    7      1      8    1
    8      1      9    1
    9      1     10    1
   10      3     11    1
   11      3     12    1
   12      3     13    1
   13      4     14    1
   14      4     15    1
   15      5     16    1
   16      5     17    1
   17      6     18    1
   18      6     19    1
#
#	File Created by: Spartan'20 Export
#

@<TRIPOS>MOLECULE
M0253
23 23
SMALL
USER_CHARGES


@<TRIPOS>ATOM
    1   C1         1.784409515    -1.146773815     0.733243672     C.3   1  noname   -0.560075
    2   N2         1.617647151    -0.416747391    -0.506451876     N.3   1  noname   -0.054360
    3   C3         2.893310962    -0.128447515    -1.124484471     C.3   1  noname   -0.535795
    4   C4         0.813623697     0.780656394    -0.345799520     C.3   1  noname   -0.403964
    5   C5        -0.642663505     0.491891228    -0.036963532     C.2   1  noname    0.254827
    6   C6        -1.351121109    -0.443418805    -0.787367649     C.2   1  noname   -0.197549
    7   C7        -2.690897526    -0.677449003    -0.538561469     C.2   1  noname   -0.126662
    8   C8        -3.348717162     0.021093489     0.464558925     C.2   1  noname   -0.164230
    9   C9        -2.653669420     0.951315109     1.215670210     C.2   1  noname   -0.120630
   10   C10       -1.307602358     1.181132487     0.965881041     C.2   1  noname   -0.241174
   11   H11        2.322820211    -2.068655367     0.542428542       H   1  noname    0.193804
   12   H12        2.340442739    -0.577601291     1.485441763       H   1  noname    0.180188
   13   H13        0.819199126    -1.403033300     1.148239872       H   1  noname    0.200021
   14   H14        2.739936370     0.338637544    -2.090035650       H   1  noname    0.182220
   15   H15        3.521310300     0.534386463    -0.521779431       H   1  noname    0.168105
   16   H16        3.438709468    -1.051318437    -1.283366051       H   1  noname    0.193550
   17   H17        1.222867577     1.439763642     0.425768822       H   1  noname    0.171829
   18   H18        0.862253464     1.333705457    -1.278788204       H   1  noname    0.179613
   19   H19       -0.840248118    -0.991048641    -1.558061544       H   1  noname    0.134109
   20   H20       -3.224349363    -1.403947168    -1.125791819       H   1  noname    0.135686
   21   H21       -4.390692194    -0.162010691     0.657534173       H   1  noname    0.136887
   22   H22       -3.152198393     1.495115608     1.998385428       H   1  noname    0.135075
   23   H23       -0.774371433     1.902754002     1.560298769       H   1  noname    0.138526


@<TRIPOS>BOND
    1      1      2    1
    2      2      3    1
    3      2      4    1
    4      4      5    1
    5      5      6    2
    6      6      7    1
    7      7      8    2
    8      8      9    1
    9      9     10    2
   10     10      5    1
   11      1     11    1
   12      1     12    1
   13      1     13    1
   14      3     14    1
   15      3     15    1
   16      3     16    1
   17      4     17    1
   18      4     18    1
   19      6     19    1
   20      7     20    1
   21      8     21    1
   22      9     22    1
   23     10     23    1
#
#	File Created by: Spartan'20 Export
#

@<TRIPOS>MOLECULE
M0254
29 28
SMALL
USER_CHARGES


@<TRIPOS>ATOM
    1   C1        -2.123405174     1.589265073     0.252255154     C.3   1  noname   -0.495363
    2   N2        -0.679255942     1.380833658     0.223351318     N.3   1  noname   -0.243081
    3   C3         0.036417532     2.650101910     0.144313445     C.3   1  noname   -0.542767
    4   P4        -0.102076158     0.111580224    -0.700087838       P   1  noname    1.168746
    5   O5        -0.225184123     0.200595476    -2.157633208     O.2   1  noname   -0.745302
    6   N6         1.505041499     0.039719286    -0.257600698   N.pl3   1  noname   -0.077973
    7   C7         1.958843182    -0.021239616     1.116871067     C.3   1  noname   -0.441831
    8   C8         2.486039845    -0.431683358    -1.221686552     C.3   1  noname   -0.558091
    9   N9        -0.982218951    -1.185496855    -0.123596360   N.pl3   1  noname   -0.084065
   10   C10       -1.260139415    -2.297848956    -1.019618228     C.3   1  noname   -0.571834
   11   C11       -1.041463193    -1.537111803     1.281344071     C.3   1  noname   -0.439628
   12   H12       -2.375143015     2.188202881     1.120863111       H   1  noname    0.185682
   13   H13       -2.643022783     0.646952490     0.322791307       H   1  noname    0.147564
   14   H14       -2.472517483     2.109588360    -0.636422641       H   1  noname    0.182873
   15   H15       -0.233063348     3.258698777     1.001253121       H   1  noname    0.198884
   16   H16        1.102428880     2.489391219     0.161180969       H   1  noname    0.160092
   17   H17       -0.215308734     3.199425603    -0.759997120       H   1  noname    0.191675
   18   H18        2.171161682    -1.042097268     1.432904414       H   1  noname    0.138553
   19   H19        1.221796913     0.400728462     1.783259968       H   1  noname    0.137966
   20   H20        2.872784570     0.555001724     1.223310019       H   1  noname    0.160715
   21   H21        2.714673853    -1.487026664    -1.078956585       H   1  noname    0.165271
   22   H22        3.408455155     0.129279444    -1.101718010       H   1  noname    0.173103
   23   H23        2.117302055    -0.285246184    -2.223318126       H   1  noname    0.200922
   24   H24       -1.270527105    -1.952973506    -2.040697131       H   1  noname    0.203219
   25   H25       -0.521252159    -3.092262001    -0.921270641       H   1  noname    0.170356
   26   H26       -2.233801960    -2.714433384    -0.781358116       H   1  noname    0.177349
   27   H27       -1.993322044    -2.016781053     1.490765522       H   1  noname    0.162313
   28   H28       -0.253086268    -2.229715498     1.569175671       H   1  noname    0.135249
   29   H29       -0.970157309    -0.655448442     1.900322098       H   1  noname    0.139399


@<TRIPOS>BOND
    1      1      2    1
    2      2      3    1
    3      2      4    1
    4      4      5    2
    5      4      6    1
    6      6      7    1
    7      6      8    1
    8      4      9    1
    9      9     10    1
   10      9     11    1
   11      1     12    1
   12      1     13    1
   13      1     14    1
   14      3     15    1
   15      3     16    1
   16      3     17    1
   17      7     18    1
   18      7     19    1
   19      7     20    1
   20      8     21    1
   21      8     22    1
   22      8     23    1
   23     10     24    1
   24     10     25    1
   25     10     26    1
   26     11     27    1
   27     11     28    1
   28     11     29    1
#
#	File Created by: Spartan'20 Export
#

@<TRIPOS>MOLECULE
M0255
16 15
SMALL
USER_CHARGES


@<TRIPOS>ATOM
    1   C1        -0.563703334     1.233964451    -1.090774513     C.3   1  noname   -0.498851
    2   N2        -0.714470931    -0.000114902    -0.333139617   N.pl3   1  noname   -0.216188
    3   C3        -0.563739833    -1.234206107    -1.090730916     C.3   1  noname   -0.500014
    4   S4        -0.310517228    -0.000253185     1.252990165       S   1  noname    1.324510
    5   O5        -0.750496615     1.243480510     1.804035901     O.2   1  noname   -0.618144
    6   O6        -0.749668675    -1.244484676     1.803540197     O.2   1  noname   -0.618032
    7   C7         1.463968140     0.000411324     1.328743738     C.3   1  noname   -0.685431
    8   H8         0.438683419     1.345335961    -1.501024179       H   1  noname    0.169329
    9   H9        -0.794436840     2.078907178    -0.463090083       H   1  noname    0.204299
   10   H10       -1.267969045     1.212751718    -1.912503619       H   1  noname    0.205192
   11   H11       -0.799075069    -2.079053027    -0.464352335       H   1  noname    0.204635
   12   H12        0.440208505    -1.347781263    -1.497061031       H   1  noname    0.169535
   13   H13       -1.264511912    -1.210625248    -1.915512547       H   1  noname    0.205392
   14   H14        1.849232816    -0.890081261     0.851810759       H   1  noname    0.214446
   15   H15        1.737710767     0.000494437     2.375166604       H   1  noname    0.224890
   16   H16        1.848785834     0.891254091     0.851901474       H   1  noname    0.214434


@<TRIPOS>BOND
    1      1      2    1
    2      2      3    1
    3      2      4    1
    4      4      5    2
    5      4      6    2
    6      4      7    1
    7      1      8    1
    8      1      9    1
    9      1     10    1
   10      3     11    1
   11      3     12    1
   12      3     13    1
   13      7     14    1
   14      7     15    1
   15      7     16    1
#
#	File Created by: Spartan'20 Export
#

@<TRIPOS>MOLECULE
M0256
23 23
SMALL
USER_CHARGES


@<TRIPOS>ATOM
    1   C1        -1.871172763     1.294251470    -0.509309053     C.3   1  noname   -0.517876
    2   N2        -1.788033435    -0.064072623     0.018698959     N.3   1  noname   -0.244785
    3   C3        -3.091436567    -0.671731619     0.293988032     C.3   1  noname   -0.468202
    4   S4        -0.690474515    -1.042027876    -0.736633772       S   1  noname    1.213475
    5   O5        -0.731155299    -0.843335196    -2.156901094     O.2   1  noname   -0.591267
    6   O6        -0.886829466    -2.356034495    -0.203978052     O.2   1  noname   -0.600955
    7   C7         0.857748344    -0.411004355    -0.154949341     C.2   1  noname   -0.047542
    8   C8         1.174467295    -0.530629721     1.192511144     C.2   1  noname   -0.177246
    9   C9         2.397283874    -0.072437608     1.640390831     C.2   1  noname   -0.092950
   10   C10        3.296752108     0.493675457     0.745187892     C.2   1  noname   -0.101691
   11   C11        2.976940490     0.600770613    -0.596105610     C.2   1  noname   -0.166653
   12   C12        1.749414614     0.144698200    -1.055185407     C.2   1  noname   -0.076434
   13   H13       -2.422122213     1.893884588     0.202925424       H   1  noname    0.207608
   14   H14       -2.369327919     1.329461087    -1.472757684       H   1  noname    0.202854
   15   H15       -0.882525295     1.719376630    -0.610160906       H   1  noname    0.170788
   16   H16       -2.956811659    -1.641783340     0.741311491       H   1  noname    0.198382
   17   H17       -3.606559941    -0.027984006     0.994516212       H   1  noname    0.186526
   18   H18       -3.696060164    -0.769380723    -0.603731287       H   1  noname    0.193392
   19   H19        0.473961798    -0.978102577     1.871684949       H   1  noname    0.156793
   20   H20        2.653207332    -0.159051553     2.680547901       H   1  noname    0.132384
   21   H21        4.248956664     0.847019805     1.098100313       H   1  noname    0.136755
   22   H22        3.677257257     1.033009120    -1.287134059       H   1  noname    0.146399
   23   H23        1.486519462     0.211428723    -2.093016884       H   1  noname    0.140246


@<TRIPOS>BOND
    1      1      2    1
    2      2      3    1
    3      2      4    1
    4      4      5    2
    5      4      6    2
    6      4      7    1
    7      7      8    2
    8      8      9    1
    9      9     10    2
   10     10     11    1
   11     11     12    2
   12     12      7    1
   13      1     13    1
   14      1     14    1
   15      1     15    1
   16      3     16    1
   17      3     17    1
   18      3     18    1
   19      8     19    1
   20      9     20    1
   21     10     21    1
   22     11     22    1
   23     12     23    1
#
#	File Created by: Spartan'20 Export
#

@<TRIPOS>MOLECULE
M0257
22 22
SMALL
USER_CHARGES


@<TRIPOS>ATOM
    1   C1        -1.950543945     0.082678877     1.040614873     C.3   1  noname   -0.410802
    2   N2        -1.630923114     0.779509689    -0.201446843     N.3   1  noname   -0.195808
    3   C3        -2.765503495     1.522925199    -0.739947488     C.3   1  noname   -0.241742
    4   S4        -0.846727795    -0.130147551    -1.376361939       S   1  noname    0.280084
    5   O5        -1.425270501    -1.484391635    -1.470126505     O.2   1  noname   -0.469244
    6   C6         0.725598123    -0.329824088    -0.543656342     C.2   1  noname    0.281558
    7   C7         1.479059345     0.787469777    -0.205577033     C.2   1  noname   -0.406793
    8   C8         2.724026549     0.618232123     0.370140813     C.2   1  noname    0.023747
    9   C9         3.215353287    -0.661230086     0.599437917     C.2   1  noname   -0.185052
   10   C10        2.462444946    -1.768853208     0.250561342     C.2   1  noname   -0.182034
   11   C11        1.211158851    -1.606928771    -0.329152638     C.2   1  noname   -0.099000
   12   H12       -2.721610535    -0.669135781     0.899437409       H   1  noname    0.169172
   13   H13       -1.066087023    -0.393300506     1.438102966       H   1  noname    0.165873
   14   H14       -2.294960678     0.815693762     1.760582295       H   1  noname    0.163807
   15   H15       -3.050328134     2.282279267    -0.021232188       H   1  noname    0.122138
   16   H16       -3.626998856     0.887040290    -0.934474141       H   1  noname    0.153821
   17   H17       -2.479150494     2.016126677    -1.658400571       H   1  noname    0.103438
   18   H18        1.088682238     1.773356194    -0.379862979       H   1  noname    0.182208
   19   H19        3.310844862     1.477981035     0.638994390       H   1  noname    0.113850
   20   H20        4.184942665    -0.789744859     1.046025438       H   1  noname    0.147005
   21   H21        2.844207016    -2.758589920     0.426674226       H   1  noname    0.155361
   22   H22        0.611786688    -2.451146483    -0.610333003       H   1  noname    0.128412


@<TRIPOS>BOND
    1      1      2    1
    2      2      3    1
    3      2      4    1
    4      4      5    2
    5      4      6    1
    6      6      7    2
    7      7      8    1
    8      8      9    2
    9      9     10    1
   10     10     11    2
   11     11      6    1
   12      1     12    1
   13      1     13    1
   14      1     14    1
   15      3     15    1
   16      3     16    1
   17      3     17    1
   18      7     18    1
   19      8     19    1
   20      9     20    1
   21     10     21    1
   22     11     22    1
#
#	File Created by: Spartan'20 Export
#

@<TRIPOS>MOLECULE
M0258
21 21
SMALL
USER_CHARGES


@<TRIPOS>ATOM
    1   C1         0.037174622    -1.248717168    -2.311161251     C.3   1  noname   -0.512947
    2   N2        -0.037352702     0.000124873    -1.585036227   N.pl3   1  noname    0.006374
    3   C3         0.038696803     1.248433446    -2.311185521     C.3   1  noname   -0.513104
    4   C4        -0.030489903     0.000147225    -0.214452662     C.2   1  noname    0.387184
    5   C5        -0.027991146     1.202319353     0.516176543     C.2   1  noname   -0.381012
    6   C6        -0.032290734     1.195488095     1.892813839     C.2   1  noname   -0.091064
    7   C7        -0.035169090     0.000131589     2.603837400     C.2   1  noname    0.006637
    8   C8        -0.031221608    -1.195215016     1.892758749     C.2   1  noname   -0.092343
    9   C9        -0.026921882    -1.202027863     0.516114947     C.2   1  noname   -0.379977
   10   C10       -0.037688007     0.000066394     4.042686513     C.1   1  noname    0.272439
   11   N11       -0.040284091    -0.000057008     5.180393910     N.1   1  noname   -0.442765
   12   H12        0.954357240    -1.792832835    -2.098011988       H   1  noname    0.161299
   13   H13       -0.804522277    -1.892759272    -2.077513200       H   1  noname    0.154357
   14   H14        0.009664272    -1.044799759    -3.371002369       H   1  noname    0.200837
   15   H15        0.955670442     1.792399916    -2.096682530       H   1  noname    0.161362
   16   H16        0.012877256     1.043974965    -3.371168885       H   1  noname    0.200797
   17   H17       -0.803219089     1.892766783    -2.078809901       H   1  noname    0.154354
   18   H18       -0.021795864     2.146945217     0.011275736       H   1  noname    0.187730
   19   H19       -0.030867804     2.129829916     2.423949318       H   1  noname    0.165996
   20   H20       -0.028921150    -2.129559914     2.423842587       H   1  noname    0.166327
   21   H21       -0.019705286    -2.146658938     0.011174993       H   1  noname    0.187518


@<TRIPOS>BOND
    1      1      2    1
    2      2      3    1
    3      2      4    1
    4      4      5    2
    5      5      6    1
    6      6      7    2
    7      7      8    1
    8      8      9    2
    9      7     10    1
   10     10     11    3
   11      9      4    1
   12      1     12    1
   13      1     13    1
   14      1     14    1
   15      3     15    1
   16      3     16    1
   17      3     17    1
   18      5     18    1
   19      6     19    1
   20      8     20    1
   21      9     21    1
#
#	File Created by: Spartan'20 Export
#

@<TRIPOS>MOLECULE
M0259
22 22
SMALL
USER_CHARGES


@<TRIPOS>ATOM
    1   C1        -2.374127332     1.303035696    -0.695958581     C.3   1  noname   -0.484125
    2   N2        -1.763598509     0.117419699    -0.137482270   N.pl3   1  noname    0.006795
    3   C3        -2.603881603    -0.956079814     0.346704376     C.3   1  noname   -0.499004
    4   C4        -0.399814284     0.023809288    -0.035346763     C.2   1  noname    0.353493
    5   C5         0.437806424     1.066624713    -0.482868821     C.2   1  noname   -0.379076
    6   C6         1.804079867     0.966272973    -0.379494570     C.2   1  noname   -0.045801
    7   C7         2.408325259    -0.163865591     0.169258390     C.2   1  noname   -0.029326
    8   C8         1.587544839    -1.192324304     0.611646608     C.2   1  noname   -0.158984
    9   C9         0.214166090    -1.113417084     0.517539773     C.2   1  noname   -0.332523
   10   C10        3.871156048    -0.266305795     0.277787499     C.2   1  noname    0.369143
   11   O11        4.646071161     0.570505246    -0.075997348     O.2   1  noname   -0.490348
   12   H12       -2.058972258     1.471574893    -1.721441869       H   1  noname    0.152705
   13   H13       -3.447864412     1.182760218    -0.695640123       H   1  noname    0.188660
   14   H14       -2.138480737     2.191068065    -0.116299971       H   1  noname    0.153909
   15   H15       -2.407455930    -1.887781340    -0.177542488       H   1  noname    0.151687
   16   H16       -3.639713341    -0.697935818     0.183886966       H   1  noname    0.195162
   17   H17       -2.467338612    -1.128102922     1.411405832       H   1  noname    0.153812
   18   H18        0.017493294     1.954109044    -0.910896489       H   1  noname    0.178265
   19   H19        2.427869095     1.769850644    -0.725353922       H   1  noname    0.150874
   20   H20        2.026462861    -2.077909920     1.040060331       H   1  noname    0.148858
   21   H21       -0.375559609    -1.934110051     0.873054542       H   1  noname    0.175372
   22   H22        4.235831690    -1.199197839     0.722978896       H   1  noname    0.040452


@<TRIPOS>BOND
    1      1      2    1
    2      2      3    1
    3      2      4    1
    4      4      5    2
    5      5      6    1
    6      6      7    2
    7      7      8    1
    8      8      9    2
    9      7     10    1
   10     10     11    2
   11      9      4    1
   12      1     12    1
   13      1     13    1
   14      1     14    1
   15      3     15    1
   16      3     16    1
   17      3     17    1
   18      5     18    1
   19      6     19    1
   20      8     20    1
   21      9     21    1
   22     10     22    1
#
#	File Created by: Spartan'20 Export
#

@<TRIPOS>MOLECULE
M0260
20 20
SMALL
USER_CHARGES


@<TRIPOS>ATOM
    1   C1         0.036730243     1.227863432    -2.034782114     C.3   1  noname   -0.372190
    2   N2        -0.247788087    -0.000003471    -1.324765236   N.pl3   1  noname   -0.238325
    3   C3         0.036520630    -1.227866347    -2.034809969     C.3   1  noname   -0.372660
    4   C4        -0.137383897    -0.000016504     0.065119578     C.2   1  noname    0.488200
    5   C5        -0.089118418    -1.195665422     0.793068650     C.2   1  noname   -0.407346
    6   C6        -0.014940264    -1.186928767     2.174321703     C.2   1  noname   -0.017512
    7   C7         0.022010100     0.000005452     2.884506034     C.2   1  noname   -0.268437
    8   C8        -0.015078569     1.186938130     2.174309721     C.2   1  noname   -0.017242
    9   C9        -0.089262485     1.195651088     0.793062120     C.2   1  noname   -0.408246
   10   H10        1.047342611     1.597439093    -1.859513010       H   1  noname    0.136858
   11   H11       -0.662891305     2.006029561    -1.756362383       H   1  noname    0.128980
   12   H12       -0.082731813     1.057314188    -3.095323881       H   1  noname    0.167955
   13   H13       -0.662965540    -2.006035819    -1.756148981       H   1  noname    0.129102
   14   H14       -0.083266743    -1.057357959    -3.095322023       H   1  noname    0.168064
   15   H15        1.047165565    -1.597377967    -1.859851754       H   1  noname    0.136933
   16   H16       -0.110871603    -2.142016539     0.291077972       H   1  noname    0.179553
   17   H17        0.017891743    -2.127333056     2.696422269       H   1  noname    0.120687
   18   H18        0.082134579     0.000008964     3.957553063       H   1  noname    0.145076
   19   H19        0.017635193     2.127351410     2.696399582       H   1  noname    0.120696
   20   H20       -0.111131940     2.142000533     0.291038656       H   1  noname    0.179854


@<TRIPOS>BOND
    1      1      2    1
    2      2      3    1
    3      2      4    1
    4      4      5    2
    5      5      6    1
    6      6      7    2
    7      7      8    1
    8      8      9    2
    9      9      4    1
   10      1     10    1
   11      1     11    1
   12      1     12    1
   13      3     13    1
   14      3     14    1
   15      3     15    1
   16      5     16    1
   17      6     17    1
   18      7     18    1
   19      8     19    1
   20      9     20    1
#
#	File Created by: Spartan'20 Export
#

@<TRIPOS>MOLECULE
M0261
19 19
SMALL
USER_CHARGES


@<TRIPOS>ATOM
    1   C1         0.032704377    -1.241118066    -1.837559185     C.3   1  noname   -0.450666
    2   N2        -0.158495179    -0.000048447    -1.117455367   N.pl3   1  noname   -0.172912
    3   C3         0.032103911     1.241151363    -1.837646978     C.3   1  noname   -0.450306
    4   C4        -0.090430125    -0.000012573     0.253939174     C.2   1  noname    0.757933
    5   C5        -0.057751913     1.187303717     0.999469858     C.2   1  noname   -0.765169
    6   C6        -0.014397408     1.118313424     2.376217454     C.2   1  noname    0.531725
    7   N7         0.006222820    -0.000039677     3.079800682     N.2   1  noname   -0.744919
    8   C8        -0.014828187    -1.118376023     2.376292676     C.2   1  noname    0.531794
    9   C9        -0.058196439    -1.187327617     0.999548035     C.2   1  noname   -0.765254
   10   H10       -0.715695310    -1.971463928    -1.554812737       H   1  noname    0.150729
   11   H11       -0.079965807    -1.056292550    -2.895629192       H   1  noname    0.188435
   12   H12        1.016902056    -1.675180477    -1.669828312       H   1  noname    0.158713
   13   H13        1.016260686     1.675583615    -1.670195483       H   1  noname    0.158634
   14   H14       -0.080822006     1.056300167    -2.895688424       H   1  noname    0.188373
   15   H15       -0.716507157     1.971256724    -1.554686970       H   1  noname    0.150641
   16   H16       -0.065445623     2.150052597     0.530574962       H   1  noname    0.227134
   17   H17        0.007720790     2.033237368     2.943437417       H   1  noname    0.038980
   18   H18        0.006940050    -2.033290989     2.943541772       H   1  noname    0.038969
   19   H19       -0.066319536    -2.150048628     0.530680619       H   1  noname    0.227169


@<TRIPOS>BOND
    1      1      2    1
    2      2      3    1
    3      2      4    1
    4      4      5    2
    5      5      6    1
    6      6      7    2
    7      7      8    1
    8      8      9    2
    9      9      4    1
   10      1     10    1
   11      1     11    1
   12      1     12    1
   13      3     13    1
   14      3     14    1
   15      3     15    1
   16      5     16    1
   17      6     17    1
   18      8     18    1
   19      9     19    1
#
#	File Created by: Spartan'20 Export
#

@<TRIPOS>MOLECULE
M0262
18 18
SMALL
USER_CHARGES


@<TRIPOS>ATOM
    1   C1         0.051673356    -1.235147850    -1.922758544     C.3   1  noname   -0.487737
    2   N2        -0.160448228     0.001645965    -1.197523234   N.pl3   1  noname   -0.223636
    3   C3         0.050522795     1.235181519    -1.928195914     C.3   1  noname   -0.468183
    4   C4        -0.098298521     0.002030996     0.160041365     C.2   1  noname    1.078331
    5   N5        -0.080829772     1.182906476     0.777449472     N.2   1  noname   -0.785812
    6   C6        -0.062864993     1.164357684     2.092019370     C.2   1  noname    0.486416
    7   C7        -0.052710984    -0.000998676     2.836011715     C.2   1  noname   -0.699520
    8   C8        -0.054143521    -1.164645614     2.089810461     C.2   1  noname    0.484858
    9   N9        -0.071988804    -1.180120765     0.775083378     N.2   1  noname   -0.783246
   10   H10       -0.309240067    -1.105763625    -2.934422659       H   1  noname    0.190959
   11   H11       -0.490712670    -2.041831437    -1.458373621       H   1  noname    0.165930
   12   H12        1.104515766    -1.509917332    -1.965568794       H   1  noname    0.169563
   13   H13       -0.457550732     2.050556325    -1.441665597       H   1  noname    0.161752
   14   H14       -0.351384248     1.116530020    -2.926577456       H   1  noname    0.183971
   15   H15        1.105751502     1.488437890    -2.009138501       H   1  noname    0.166242
   16   H16       -0.051883454     2.126969865     2.575149862       H   1  noname    0.070641
   17   H17       -0.034773822    -0.002019202     3.907990834       H   1  noname    0.218685
   18   H18       -0.035633600    -2.128172240     2.570667864       H   1  noname    0.070785


@<TRIPOS>BOND
    1      1      2    1
    2      2      3    1
    3      2      4    1
    4      4      5    2
    5      5      6    1
    6      6      7    2
    7      7      8    1
    8      8      9    2
    9      9      4    1
   10      1     10    1
   11      1     11    1
   12      1     12    1
   13      3     13    1
   14      3     14    1
   15      3     15    1
   16      6     16    1
   17      7     17    1
   18      8     18    1
#
#	File Created by: Spartan'20 Export
#

@<TRIPOS>MOLECULE
M0263
19 19
SMALL
USER_CHARGES


@<TRIPOS>ATOM
    1   C1         1.548170021    -0.000265411    -1.857005908     C.3   1  noname   -0.567235
    2   N2         0.156619727     0.000007232    -1.432931027   N.pl3   1  noname   -0.146333
    3   C3        -0.789735034     0.000384750    -2.415589233     C.2   1  noname    0.484674
    4   O4        -1.976469817     0.000988690    -2.295788605     O.2   1  noname   -0.552703
    5   C5        -0.124065335     0.000013496    -0.037340857     C.2   1  noname    0.328013
    6   C6        -1.426945835    -0.000271353     0.469021523     C.2   1  noname   -0.312567
    7   C7        -1.640900836    -0.000256096     1.835377634     C.2   1  noname   -0.073798
    8   C8        -0.586409249     0.000000819     2.732646110     C.2   1  noname   -0.174678
    9   C9         0.701983287     0.000248115     2.235668818     C.2   1  noname   -0.096486
   10   C10        0.935153904     0.000245315     0.869938425     C.2   1  noname   -0.303727
   11   H11        2.066132917     0.881618659    -1.499461459       H   1  noname    0.189602
   12   H12        1.593599311    -0.000342949    -2.935996982       H   1  noname    0.195860
   13   H13        2.065686684    -0.882348792    -1.499358914       H   1  noname    0.189569
   14   H14       -0.336263678     0.000073942    -3.404794759       H   1  noname    0.058806
   15   H15       -2.261406816    -0.000523557    -0.195203239       H   1  noname    0.211897
   16   H16       -2.654188947    -0.000462975     2.196444834       H   1  noname    0.128968
   17   H17       -0.766523406     0.000000026     3.792548833       H   1  noname    0.135195
   18   H18        1.542996864     0.000444083     2.906405076       H   1  noname    0.133173
   19   H19        1.952566238     0.000446006     0.535419729       H   1  noname    0.171771


@<TRIPOS>BOND
    1      1      2    1
    2      2      3    1
    3      3      4    2
    4      2      5    1
    5      5      6    2
    6      6      7    1
    7      7      8    2
    8      8      9    1
    9      9     10    2
   10     10      5    1
   11      1     11    1
   12      1     12    1
   13      1     13    1
   14      3     14    1
   15      6     15    1
   16      7     16    1
   17      8     17    1
   18      9     18    1
   19     10     19    1
#
#	File Created by: Spartan'20 Export
#

@<TRIPOS>MOLECULE
M0264
15 15
SMALL
USER_CHARGES


@<TRIPOS>ATOM
    1   C1        -0.000064853     0.008363656    -2.146338324     C.3   1  noname   -0.633806
    2   N2         0.000056850    -0.007109832    -0.695385320    N.am   1  noname    0.007614
    3   C3        -1.153991941     0.000999575     0.055664764     C.2   1  noname    0.582473
    4   O4        -2.255517586     0.009471510    -0.392623300     O.2   1  noname   -0.550551
    5   C5        -0.765899087    -0.006720993     1.522212835     C.3   1  noname   -0.376094
    6   C6         0.765911495    -0.007020763     1.522240297     C.3   1  noname   -0.376048
    7   C7         1.154070456     0.000800356     0.055708616     C.2   1  noname    0.582515
    8   O8         2.255617010     0.009166523    -0.392495730     O.2   1  noname   -0.550590
    9   H9        -0.001068086     1.025070664    -2.518669142       H   1  noname    0.207116
   10   H10       -0.885643103    -0.498433381    -2.496733392       H   1  noname    0.221728
   11   H11        0.886544794    -0.496684151    -2.496680080       H   1  noname    0.221730
   12   H12       -1.197846080     0.863415121     2.000260047       H   1  noname    0.167420
   13   H13       -1.197957939    -0.881806512     1.991245735       H   1  noname    0.164546
   14   H14        1.197624896    -0.882365816     1.991105043       H   1  noname    0.164536
   15   H15        1.198163174     0.862854042     2.000487951       H   1  noname    0.167411


@<TRIPOS>BOND
    1      1      2    1
    2      2      3    am
    3      3      4    2
    4      3      5    1
    5      5      6    1
    6      6      7    1
    7      7      8    2
    8      7      2    am
    9      1      9    1
   10      1     10    1
   11      1     11    1
   12      5     12    1
   13      5     13    1
   14      6     14    1
   15      6     15    1
#
#	File Created by: Spartan'20 Export
#

@<TRIPOS>MOLECULE
M0265
20 20
SMALL
USER_CHARGES


@<TRIPOS>ATOM
    1   C1        -1.150937803    -0.000006716    -1.768847283     C.3   1  noname   -0.401772
    2   N2         0.208712343    -0.000001050    -1.269636808     N.3   1  noname   -0.380046
    3   C3         0.582517622    -1.198047959    -0.540872734     C.3   1  noname   -0.048548
    4   C4         0.028130311    -1.257686338     0.892408185     C.3   1  noname   -0.219458
    5   C5         0.444520995     0.000005580     1.645043806     C.3   1  noname    0.096302
    6   C6         0.028134340     1.257695985     0.892404410     C.3   1  noname   -0.219459
    7   C7         0.582522194     1.198044833    -0.540875593     C.3   1  noname   -0.048540
    8   Cl8       -0.251087094     0.000004663     3.316416783      Cl   1  noname   -0.252944
    9   H9        -1.302918077    -0.875009680    -2.390924545       H   1  noname    0.163173
   10   H10       -1.923730954    -0.000076082    -0.997954554       H   1  noname    0.151839
   11   H11       -1.302972540     0.875058935    -2.390820126       H   1  noname    0.163178
   12   H12        0.256237991    -2.067898852    -1.099447622       H   1  noname    0.118506
   13   H13        1.668502785    -1.240158770    -0.502735304       H   1  noname    0.095027
   14   H14       -1.054859218    -1.326788387     0.879570920       H   1  noname    0.137284
   15   H15        0.400979205    -2.140530751     1.400956632       H   1  noname    0.083519
   16   H16        1.515348710     0.000005189     1.796993188       H   1  noname    0.127609
   17   H17        0.400989975     2.140541733     1.400945355       H   1  noname    0.083519
   18   H18       -1.054855079     1.326807898     0.879565955       H   1  noname    0.137284
   19   H19        0.256257762     2.067898249    -1.099454908       H   1  noname    0.118503
   20   H20        1.668506532     1.240141520    -0.502735757       H   1  noname    0.095025


@<TRIPOS>BOND
    1      1      2    1
    2      2      3    1
    3      3      4    1
    4      4      5    1
    5      5      6    1
    6      6      7    1
    7      5      8    1
    8      7      2    1
    9      1      9    1
   10      1     10    1
   11      1     11    1
   12      3     12    1
   13      3     13    1
   14      4     14    1
   15      4     15    1
   16      5     16    1
   17      6     17    1
   18      6     18    1
   19      7     19    1
   20      7     20    1
#
#	File Created by: Spartan'20 Export
#

@<TRIPOS>MOLECULE
M0266
17 17
SMALL
USER_CHARGES


@<TRIPOS>ATOM
    1   C1         0.478440039     0.000043150     1.794007938     C.3   1  noname   -0.399551
    2   N2        -0.633968247    -0.000010928     0.862364512     N.3   1  noname   -0.393963
    3   C3        -0.627251734    -1.144241703    -0.040433606     C.3   1  noname   -0.041449
    4   C4         0.294337853    -0.773704953    -1.225501295     C.3   1  noname   -0.095479
    5   C5         0.294479388     0.773717280    -1.225376998     C.3   1  noname   -0.095443
    6   C6        -0.627320660     1.144191589    -0.040476724     C.3   1  noname   -0.041541
    7   H7         1.463406182    -0.000037326     1.320418343       H   1  noname    0.158091
    8   H8         0.414415552    -0.874946373     2.430615942       H   1  noname    0.160344
    9   H9         0.414482066     0.875137997     2.430482467       H   1  noname    0.160352
   10   H10       -0.321315391    -2.044768795     0.478295655       H   1  noname    0.102848
   11   H11       -1.640880965    -1.302719244    -0.396720625       H   1  noname    0.088224
   12   H12        1.296549261    -1.160495437    -1.076349023       H   1  noname    0.057065
   13   H13       -0.070022594    -1.189051416    -2.158445763       H   1  noname    0.046157
   14   H14        1.296726732     1.160293131    -1.075883952       H   1  noname    0.057078
   15   H15       -0.069559009     1.189313467    -2.158342766       H   1  noname    0.046143
   16   H16       -0.321583338     2.044793918     0.478254057       H   1  noname    0.102867
   17   H17       -1.640935136     1.302485643    -0.396908161       H   1  noname    0.088256


@<TRIPOS>BOND
    1      1      2    1
    2      2      3    1
    3      3      4    1
    4      4      5    1
    5      5      6    1
    6      6      2    1
    7      1      7    1
    8      1      8    1
    9      1      9    1
   10      3     10    1
   11      3     11    1
   12      4     12    1
   13      4     13    1
   14      5     14    1
   15      5     15    1
   16      6     16    1
   17      6     17    1
#
#	File Created by: Spartan'20 Export
#

@<TRIPOS>MOLECULE
M0267
16 16
SMALL
USER_CHARGES


@<TRIPOS>ATOM
    1   C1        -2.045780563     0.615812693     0.013418658     C.3   1  noname   -0.595655
    2   N2        -0.653414051     0.252312788     0.075248558    N.am   1  noname   -0.000973
    3   C3        -0.202031124    -1.097643837    -0.185051298     C.3   1  noname   -0.195253
    4   C4         1.287774825    -1.047049439     0.185129427     C.3   1  noname   -0.215407
    5   C5         1.660385279     0.421727203    -0.038010808     C.3   1  noname   -0.383401
    6   C6         0.345735686     1.167940927     0.108568235     C.2   1  noname    0.657510
    7   O7         0.210987262     2.353706705     0.215568027     O.2   1  noname   -0.622589
    8   H8        -2.618316387     0.042842773     0.735579553       H   1  noname    0.179384
    9   H9        -2.136556183     1.665973199     0.241029247       H   1  noname    0.221028
   10   H10       -2.457454350     0.430625162    -0.976048743       H   1  noname    0.181792
   11   H11       -0.756833087    -1.809225164     0.416276078       H   1  noname    0.120263
   12   H12       -0.351434564    -1.363129047    -1.230962571       H   1  noname    0.115776
   13   H13        1.881523102    -1.736799596    -0.400881627       H   1  noname    0.120264
   14   H14        1.410571346    -1.307085837     1.230499155       H   1  noname    0.114818
   15   H15        2.396005425     0.808987782     0.653745145       H   1  noname    0.148546
   16   H16        2.028837384     0.601003690    -1.044107034       H   1  noname    0.153896


@<TRIPOS>BOND
    1      1      2    1
    2      2      3    1
    3      3      4    1
    4      4      5    1
    5      5      6    1
    6      6      7    2
    7      6      2    am
    8      1      8    1
    9      1      9    1
   10      1     10    1
   11      3     11    1
   12      3     12    1
   13      4     13    1
   14      4     14    1
   15      5     15    1
   16      5     16    1
#
#	File Created by: Spartan'20 Export
#

@<TRIPOS>MOLECULE
M0268
20 20
SMALL
USER_CHARGES


@<TRIPOS>ATOM
    1   C1        -0.641708593    -0.000006656     1.987165484     C.3   1  noname   -0.380204
    2   N2         0.527469884     0.000000475     1.134233873     N.3   1  noname   -0.391490
    3   C3         0.685242215    -1.202121882     0.331603745     C.3   1  noname   -0.031177
    4   C4        -0.233421978    -1.260007616    -0.895637876     C.3   1  noname   -0.114855
    5   C5        -0.063036804     0.000002484    -1.750802638     C.3   1  noname   -0.097362
    6   C6        -0.233418040     1.260014351    -0.895639820     C.3   1  noname   -0.114854
    7   C7         0.685240345     1.202123459     0.331604921     C.3   1  noname   -0.031170
    8   H8        -0.617597493    -0.875352610     2.627424590       H   1  noname    0.152513
    9   H9        -1.598093128    -0.000032290     1.460344720       H   1  noname    0.144129
   10   H10       -0.617630931     0.875355034     2.627401702       H   1  noname    0.152515
   11   H11        1.719721277    -1.241391426    -0.003235290       H   1  noname    0.083819
   12   H12        0.529649946    -2.067152815     0.967730208       H   1  noname    0.095679
   13   H13       -1.270554052    -1.349633361    -0.580185121       H   1  noname    0.086287
   14   H14       -0.007442945    -2.149307622    -1.478813404       H   1  noname    0.034806
   15   H15       -0.768975282     0.000002505    -2.576880440       H   1  noname    0.036406
   16   H16        0.933166906    -0.000000174    -2.191807496       H   1  noname    0.074373
   17   H17       -1.270550860     1.349649017    -0.580191806       H   1  noname    0.086286
   18   H18       -0.007429425     2.149312278    -1.478814886       H   1  noname    0.034805
   19   H19        0.529649994     2.067153845     0.967732013       H   1  noname    0.095677
   20   H20        1.719718965     1.241393005    -0.003232479       H   1  noname    0.083817


@<TRIPOS>BOND
    1      1      2    1
    2      2      3    1
    3      3      4    1
    4      4      5    1
    5      5      6    1
    6      6      7    1
    7      7      2    1
    8      1      8    1
    9      1      9    1
   10      1     10    1
   11      3     11    1
   12      3     12    1
   13      4     13    1
   14      4     14    1
   15      5     15    1
   16      5     16    1
   17      6     17    1
   18      6     18    1
   19      7     19    1
   20      7     20    1
#
#	File Created by: Spartan'20 Export
#

@<TRIPOS>MOLECULE
M0269
19 19
SMALL
USER_CHARGES


@<TRIPOS>ATOM
    1   C1         2.240911402    -0.710503359     0.582943612     C.3   1  noname   -0.634580
    2   N2         0.894661982    -0.382371097     0.157499743    N.am   1  noname   -0.078335
    3   C3         0.666227216     1.025742374    -0.131631809     C.3   1  noname   -0.083989
    4   C4        -0.655546917     1.282413967    -0.839953064     C.3   1  noname   -0.393436
    5   C5        -1.784617705     0.583077574    -0.094445799     C.3   1  noname    0.003791
    6   C6        -1.505416127    -0.915950544    -0.062336880     C.3   1  noname   -0.449828
    7   C7        -0.093341560    -1.298912592     0.350038159     C.2   1  noname    0.731057
    8   O8         0.124768960    -2.403322803     0.774611669     O.2   1  noname   -0.635957
    9   H9         2.330297210    -1.776504879     0.698933532       H   1  noname    0.238240
   10   H10        2.480735623    -0.230935272     1.529369415       H   1  noname    0.186652
   11   H11        2.951504828    -0.367840149    -0.162081427       H   1  noname    0.185210
   12   H12        0.703059755     1.598908581     0.794942108       H   1  noname    0.102812
   13   H13        1.489744004     1.372712890    -0.746558135       H   1  noname    0.110338
   14   H14       -0.602928782     0.909278042    -1.859915939       H   1  noname    0.145828
   15   H15       -0.820773989     2.353991580    -0.896678606       H   1  noname    0.133425
   16   H16       -1.849017092     0.973379400     0.919069570       H   1  noname    0.074769
   17   H17       -2.743267959     0.773598430    -0.566213678       H   1  noname    0.068931
   18   H18       -2.173663874    -1.445279025     0.604938441       H   1  noname    0.146916
   19   H19       -1.653336976    -1.341483116    -1.052530914       H   1  noname    0.148157


@<TRIPOS>BOND
    1      1      2    1
    2      2      3    1
    3      3      4    1
    4      4      5    1
    5      5      6    1
    6      6      7    1
    7      7      8    2
    8      7      2    am
    9      1      9    1
   10      1     10    1
   11      1     11    1
   12      3     12    1
   13      3     13    1
   14      4     14    1
   15      4     15    1
   16      5     16    1
   17      5     17    1
   18      6     18    1
   19      6     19    1
#
#	File Created by: Spartan'20 Export
#

@<TRIPOS>MOLECULE
M0270
22 22
SMALL
USER_CHARGES


@<TRIPOS>ATOM
    1   C1         2.658423004     0.157263735     0.440785597     C.3   1  noname   -0.617795
    2   N2         1.233650704     0.189468274     0.157929030    N.am   1  noname   -0.032601
    3   C3         0.643465413    -1.134331604    -0.016812019     C.3   1  noname   -0.145069
    4   C4        -0.565979778    -1.219534334    -0.945700105     C.3   1  noname   -0.178411
    5   C5        -1.887721300    -0.821108025    -0.284224549     C.3   1  noname   -0.186307
    6   C6        -1.751842483     0.424463609     0.593154382     C.3   1  noname   -0.065837
    7   C7        -0.893371967     1.517851530    -0.043736315     C.3   1  noname   -0.326218
    8   C8         0.621701487     1.404869783     0.096434367     C.2   1  noname    0.625694
    9   O9         1.254576193     2.428909720     0.157962035     O.2   1  noname   -0.622827
   10   H10        3.215442232    -0.206333705    -0.419422665       H   1  noname    0.178511
   11   H11        2.998661565     1.147626171     0.682635727       H   1  noname    0.240628
   12   H12        2.852387942    -0.507872113     1.277359676       H   1  noname    0.173168
   13   H13        1.429802054    -1.747620625    -0.441983105       H   1  noname    0.115059
   14   H14        0.404873941    -1.572425920     0.951402072       H   1  noname    0.105715
   15   H15       -0.374473539    -0.609279697    -1.823675329       H   1  noname    0.093020
   16   H16       -0.640441825    -2.243523652    -1.300946787       H   1  noname    0.090435
   17   H17       -2.631302320    -0.646213467    -1.057879662       H   1  noname    0.086088
   18   H18       -2.258385659    -1.646804706     0.317978037       H   1  noname    0.078463
   19   H19       -2.738413248     0.828703616     0.798208639       H   1  noname    0.062656
   20   H20       -1.332466574     0.157261199     1.559684315       H   1  noname    0.069255
   21   H21       -1.123691887     1.620217663    -1.101851013       H   1  noname    0.133711
   22   H22       -1.114893954     2.478412547     0.402697671       H   1  noname    0.122663


@<TRIPOS>BOND
    1      1      2    1
    2      2      3    1
    3      3      4    1
    4      4      5    1
    5      5      6    1
    6      6      7    1
    7      7      8    1
    8      8      9    2
    9      8      2    am
   10      1     10    1
   11      1     11    1
   12      1     12    1
   13      3     13    1
   14      3     14    1
   15      4     15    1
   16      4     16    1
   17      5     17    1
   18      5     18    1
   19      6     19    1
   20      6     20    1
   21      7     21    1
   22      7     22    1
#
#	File Created by: Spartan'20 Export
#

@<TRIPOS>MOLECULE
M0271
21 21
SMALL
USER_CHARGES


@<TRIPOS>ATOM
    1   C1         0.018652653     2.412642842     1.084801364     C.3   1  noname   -0.569067
    2   N2        -0.131216864     1.170628891     0.354493854    N.am   1  noname   -0.230244
    3   C3         0.152386588     1.234095973    -1.064432579     C.3   1  noname    0.084800
    4   C4        -0.380600215     0.000000291    -1.765694022     C.3   1  noname   -0.586297
    5   C5         0.152573652    -1.233983722    -1.064379706     C.3   1  noname    0.083979
    6   N6        -0.131779581    -1.170740273     0.354412164   N.pl3   1  noname   -0.230714
    7   C7        -0.124251359    -0.000052762     1.069304231     C.2   1  noname    0.801830
    8   O8        -0.155792931    -0.000090326     2.276168305     O.2   1  noname   -0.635032
    9   C9         0.018161905    -2.412704188     1.084816896     C.3   1  noname   -0.566103
   10   H10       -0.574790336     3.182184466     0.603752759       H   1  noname    0.177220
   11   H11        1.055423131     2.743142950     1.104587709       H   1  noname    0.174411
   12   H12       -0.322710375     2.281032605     2.096221647       H   1  noname    0.221654
   13   H13       -0.318512402     2.126673628    -1.460531965       H   1  noname    0.096905
   14   H14        1.224365386     1.334954563    -1.241261006       H   1  noname    0.072618
   15   H15       -1.464966013    -0.000125517    -1.726828370       H   1  noname    0.181297
   16   H16       -0.080234125     0.000018544    -2.808422386       H   1  noname    0.181822
   17   H17        1.224686178    -1.334452913    -1.240810627       H   1  noname    0.072748
   18   H18       -0.317868281    -2.126677055    -1.460778194       H   1  noname    0.097110
   19   H19       -0.573993983    -3.182639947     0.602768193       H   1  noname    0.176439
   20   H20        1.055211737    -2.742392022     1.106032496       H   1  noname    0.173733
   21   H21       -0.324744766    -2.281516028     2.095779238       H   1  noname    0.220891


@<TRIPOS>BOND
    1      1      2    1
    2      2      3    1
    3      3      4    1
    4      4      5    1
    5      5      6    1
    6      6      7    1
    7      7      8    2
    8      6      9    1
    9      7      2    am
   10      1     10    1
   11      1     11    1
   12      1     12    1
   13      3     13    1
   14      3     14    1
   15      4     15    1
   16      4     16    1
   17      5     17    1
   18      5     18    1
   19      9     19    1
   20      9     20    1
   21      9     21    1
#
#	File Created by: Spartan'20 Export
#

@<TRIPOS>MOLECULE
M0272
26 27
SMALL
USER_CHARGES


@<TRIPOS>ATOM
    1   C1        -1.211417780    -2.091021953    -0.098754904     C.3   1  noname   -0.593495
    2   N2        -1.354373742    -0.769450701    -0.653028241     N.3   1  noname   -0.114389
    3   C3        -2.131385102     0.162102233     0.136925416     C.3   1  noname   -0.097487
    4   C4        -1.940419044     1.507952396    -0.581981263     C.3   1  noname   -0.255822
    5   C5        -0.703489431     1.300876644    -1.487497151     C.3   1  noname   -0.300953
    6   C6        -0.149978361    -0.086596031    -1.111978365     C.3   1  noname   -0.202036
    7   C7         1.013521230    -0.054526808    -0.122561214     C.2   1  noname   -0.003652
    8   C8         1.100707458     0.820379133     0.954644371     C.2   1  noname    0.122559
    9   C9         2.189362964     0.755247313     1.804050747     C.2   1  noname   -0.577325
   10   C10        3.170244661    -0.186728561     1.547709416     C.2   1  noname    0.473845
   11   N11        3.115665755    -1.021476825     0.527988189     N.2   1  noname   -0.649978
   12   C12        2.068150631    -0.947645426    -0.272394373     C.2   1  noname    0.278936
   13   H13       -0.659650404    -2.721998799    -0.787361724       H   1  noname    0.196797
   14   H14       -0.698145643    -2.109590969     0.864552880       H   1  noname    0.183890
   15   H15       -2.194864240    -2.529767610     0.035394061       H   1  noname    0.192552
   16   H16       -3.169316604    -0.153749167     0.167284586       H   1  noname    0.113591
   17   H17       -1.785250321     0.217008774     1.172625418       H   1  noname    0.087657
   18   H18       -2.809772454     1.754020241    -1.177490775       H   1  noname    0.129449
   19   H19       -1.801678230     2.319061087     0.123343861       H   1  noname    0.112503
   20   H20        0.035763901     2.084077278    -1.378635581       H   1  noname    0.121532
   21   H21       -1.005714334     1.285248038    -2.526669637       H   1  noname    0.159016
   22   H22        0.208033745    -0.602605566    -1.996877253       H   1  noname    0.155061
   23   H23        0.336730196     1.555194688     1.129533631       H   1  noname    0.149909
   24   H24        2.280670528     1.421545332     2.642232680       H   1  noname    0.203537
   25   H25        4.033167069    -0.266084446     2.185702139       H   1  noname    0.040261
   26   H26        2.063437552    -1.641470297    -1.096756914       H   1  noname    0.074043


@<TRIPOS>BOND
    1      1      2    1
    2      2      3    1
    3      3      4    1
    4      4      5    1
    5      5      6    1
    6      6      7    1
    7      7      8    2
    8      8      9    1
    9      9     10    2
   10     10     11    1
   11     11     12    2
   12      6      2    1
   13     12      7    1
   14      1     13    1
   15      1     14    1
   16      1     15    1
   17      3     16    1
   18      3     17    1
   19      4     18    1
   20      4     19    1
   21      5     20    1
   22      5     21    1
   23      6     22    1
   24      8     23    1
   25      9     24    1
   26     10     25    1
   27     12     26    1
#
#	File Created by: Spartan'20 Export
#

@<TRIPOS>MOLECULE
M0273
18 18
SMALL
USER_CHARGES


@<TRIPOS>ATOM
    1   C1        -2.428421798     0.007664599     0.641910264     C.3   1  noname   -0.528949
    2   N2        -1.091822914    -0.181618445     0.139207438    N.am   1  noname   -0.190202
    3   C3        -0.758028179     0.105673270    -1.236641507     C.3   1  noname   -0.225321
    4   C4         0.758035302    -0.105867700    -1.236617681     C.3   1  noname   -0.223064
    5   N5         1.091804165     0.181545992     0.139215695   N.pl3   1  noname   -0.190391
    6   C6        -0.000011611     0.000032740     0.947414456     C.2   1  noname    0.789702
    7   O7        -0.000020685     0.000130688     2.147096891     O.2   1  noname   -0.628682
    8   C8         2.428414225    -0.007563799     0.641871257     C.3   1  noname   -0.528429
    9   H9        -3.114741742    -0.645639773     0.115292594       H   1  noname    0.184559
   10   H10       -2.440678776    -0.240245157     1.691865289       H   1  noname    0.205662
   11   H11       -2.765717253     1.035252630     0.519010474       H   1  noname    0.177842
   12   H12       -1.274661423    -0.559505630    -1.917695856       H   1  noname    0.155311
   13   H13       -1.012824298     1.131470882    -1.500145869       H   1  noname    0.140064
   14   H14        1.274659609     0.559279201    -1.917698212       H   1  noname    0.154780
   15   H15        1.012862659    -1.131684504    -1.500033054       H   1  noname    0.139506
   16   H16        2.766092805    -1.035079587     0.518342835       H   1  noname    0.177907
   17   H17        2.440508092     0.239828431     1.692049842       H   1  noname    0.205430
   18   H18        3.114551823     0.646326165     0.115555144       H   1  noname    0.184274


@<TRIPOS>BOND
    1      1      2    1
    2      2      3    1
    3      3      4    1
    4      4      5    1
    5      5      6    1
    6      6      7    2
    7      5      8    1
    8      6      2    am
    9      1      9    1
   10      1     10    1
   11      1     11    1
   12      3     12    1
   13      3     13    1
   14      4     14    1
   15      4     15    1
   16      8     16    1
   17      8     17    1
   18      8     18    1
#
#	File Created by: Spartan'20 Export
#

@<TRIPOS>MOLECULE
M0274
18 18
SMALL
USER_CHARGES


@<TRIPOS>ATOM
    1   C1         2.451054516    -0.012711249     0.600982554     C.3   1  noname   -0.588055
    2   N2         1.086400745     0.119882049     0.148578444   N.pl3   1  noname    0.042432
    3   C3         0.753012322    -0.120045726    -1.241989890     C.3   1  noname   -0.195764
    4   C4        -0.752899743     0.123124462    -1.241903424     C.3   1  noname   -0.195722
    5   N5        -1.086071561    -0.116988479     0.148540379   N.pl3   1  noname    0.045678
    6   C6         0.000081927     0.001154058     0.938536018     C.2   1  noname    0.257950
    7   S7         0.000626096    -0.000293906     2.617197750     S.2   1  noname   -0.452707
    8   C8        -2.451325505     0.010339738     0.600443825     C.3   1  noname   -0.594243
    9   H9         2.775405840    -1.050686927     0.587846927       H   1  noname    0.190428
   10   H10        2.535535803     0.368520222     1.604195356       H   1  noname    0.188419
   11   H11        3.091714593     0.562114267    -0.057223671       H   1  noname    0.195682
   12   H12        0.995526009    -1.142218575    -1.525886635       H   1  noname    0.129660
   13   H13        1.292924745     0.554781537    -1.893842372       H   1  noname    0.133985
   14   H14       -0.995417495     1.145390267    -1.525277300       H   1  noname    0.129467
   15   H15       -1.292982192    -0.551190140    -1.894169633       H   1  noname    0.134089
   16   H16       -3.089492608    -0.573229232    -0.052576670       H   1  noname    0.196875
   17   H17       -2.781746950     1.045902422     0.580058028       H   1  noname    0.192021
   18   H18       -2.532346541    -0.363844787     1.606490314       H   1  noname    0.189807


@<TRIPOS>BOND
    1      1      2    1
    2      2      3    1
    3      3      4    1
    4      4      5    1
    5      5      6    1
    6      6      7    2
    7      5      8    1
    8      6      2    1
    9      1      9    1
   10      1     10    1
   11      1     11    1
   12      3     12    1
   13      3     13    1
   14      4     14    1
   15      4     15    1
   16      8     16    1
   17      8     17    1
   18      8     18    1
#
#	File Created by: Spartan'20 Export
#

@<TRIPOS>MOLECULE
M0275
22 22
SMALL
USER_CHARGES


@<TRIPOS>ATOM
    1   C1        -2.809178519    -0.000002411    -0.014741807     C.3   1  noname   -0.599756
    2   N2        -1.392647301     0.000005430    -0.294976739     N.3   1  noname   -0.084652
    3   C3        -0.733943598     1.193263983     0.199222390     C.3   1  noname   -0.270669
    4   C4         0.733945198     1.193263816    -0.199195146     C.3   1  noname   -0.270679
    5   N5         1.392656183     0.000006412     0.294999360     N.3   1  noname   -0.084652
    6   C6         0.733948494    -1.193252743    -0.199193686     C.3   1  noname   -0.270681
    7   C7        -0.733945496    -1.193256393     0.199214899     C.3   1  noname   -0.270666
    8   C8         2.809178525    -0.000004925     0.014720259     C.3   1  noname   -0.599756
    9   H9        -3.270587407     0.876852659    -0.455459286       H   1  noname    0.199335
   10   H10       -3.033740994    -0.000021343     1.056385266       H   1  noname    0.174961
   11   H11       -3.270575831    -0.876850348    -0.455487991       H   1  noname    0.199333
   12   H12       -1.221746284     2.063531189    -0.228006519       H   1  noname    0.165865
   13   H13       -0.808718610     1.271934932     1.288257297       H   1  noname    0.160197
   14   H14        0.808710914     1.271925563    -1.288231741       H   1  noname    0.160197
   15   H15        1.221750774     2.063534053     0.228024338       H   1  noname    0.165868
   16   H16        1.221748539    -2.063524540     0.228033399       H   1  noname    0.165868
   17   H17        0.808733502    -1.271915383    -1.288232250       H   1  noname    0.160197
   18   H18       -1.221740447    -2.063523628    -0.228026887       H   1  noname    0.165864
   19   H19       -0.808736458    -1.271935621     1.288251110       H   1  noname    0.160196
   20   H20        3.270607234     0.876854183     0.455404533       H   1  noname    0.199337
   21   H21        3.033689187    -0.000035528    -1.056412712       H   1  noname    0.174960
   22   H22        3.270592396    -0.876849358     0.455451913       H   1  noname    0.199334


@<TRIPOS>BOND
    1      1      2    1
    2      2      3    1
    3      3      4    1
    4      4      5    1
    5      5      6    1
    6      6      7    1
    7      5      8    1
    8      7      2    1
    9      1      9    1
   10      1     10    1
   11      1     11    1
   12      3     12    1
   13      3     13    1
   14      4     14    1
   15      4     15    1
   16      6     16    1
   17      6     17    1
   18      7     18    1
   19      7     19    1
   20      8     20    1
   21      8     21    1
   22      8     22    1
#
#	File Created by: Spartan'20 Export
#

@<TRIPOS>MOLECULE
M0276
18 18
SMALL
USER_CHARGES


@<TRIPOS>ATOM
    1   C1         1.960787345     0.444086142    -0.494745416     C.3   1  noname   -0.482857
    2   N2         0.763764441     0.362991262     0.307475124     N.3   1  noname   -0.295315
    3   C3         0.353963238    -0.994480328     0.664361711     C.3   1  noname   -0.035567
    4   C4        -0.887187277    -1.441634369    -0.094832935     C.3   1  noname    0.070061
    5   O5        -1.972485002    -0.580877172     0.138527343     O.3   1  noname   -0.410252
    6   C6        -1.636733166     0.756178952     0.413352546     C.3   1  noname   -0.024744
    7   C7        -0.325206116     1.155387967    -0.238262491     C.3   1  noname   -0.111240
    8   H8         1.850379958    -0.000151658    -1.488823026       H   1  noname    0.149073
    9   H9         2.236666897     1.484613767    -0.627186153       H   1  noname    0.177391
   10   H10        2.781274424    -0.052501420     0.009977381       H   1  noname    0.178299
   11   H11        1.165515973    -1.686242240     0.466762336       H   1  noname    0.096967
   12   H12        0.147758912    -1.043946896     1.730150797       H   1  noname    0.090510
   13   H13       -1.192292026    -2.430922115     0.223979739       H   1  noname    0.065258
   14   H14       -0.677274803    -1.488556920    -1.161529833       H   1  noname    0.085289
   15   H15       -2.446330013     1.369582227     0.038912743       H   1  noname    0.102449
   16   H16       -1.569592191     0.907568211     1.487668568       H   1  noname    0.112627
   17   H17       -0.131507225     2.208430479    -0.055190069       H   1  noname    0.104638
   18   H18       -0.421503370     1.030474113    -1.320598365       H   1  noname    0.127413


@<TRIPOS>BOND
    1      1      2    1
    2      2      3    1
    3      3      4    1
    4      4      5    1
    5      5      6    1
    6      6      7    1
    7      7      2    1
    8      1      8    1
    9      1      9    1
   10      1     10    1
   11      3     11    1
   12      3     12    1
   13      4     13    1
   14      4     14    1
   15      6     15    1
   16      6     16    1
   17      7     17    1
   18      7     18    1
#
#	File Created by: Spartan'20 Export
#

@<TRIPOS>MOLECULE
M0277
24 25
SMALL
USER_CHARGES


@<TRIPOS>ATOM
    1   C1         3.095533207     0.687275748     0.092501631     C.3   1  noname   -0.619505
    2   N2         1.751220262     0.287800792    -0.252820786     N.3   1  noname   -0.192381
    3   C3         1.544613251    -1.142979985    -0.149758864     C.3   1  noname    0.016418
    4   C4         0.241062872    -1.521293611    -0.839734597     C.3   1  noname   -0.642772
    5   C5        -0.907007218    -0.647738147    -0.383146881     C.2   1  noname    0.353107
    6   C6        -2.226809820    -1.038244815    -0.593742255     C.2   1  noname   -0.324724
    7   C7        -3.280149908    -0.239163921    -0.196135291     C.2   1  noname   -0.119691
    8   C8        -3.023421059     0.975027029     0.425513871     C.2   1  noname   -0.149276
    9   C9        -1.717616272     1.369394742     0.637536618     C.2   1  noname   -0.218456
   10   C10       -0.651818033     0.568542872     0.237007368     C.2   1  noname    0.000573
   11   C11        0.766954687     1.020648144     0.516452460     C.3   1  noname   -0.125793
   12   H12        3.209117444     1.755820582    -0.053058298       H   1  noname    0.208076
   13   H13        3.805855112     0.185375134    -0.554284254       H   1  noname    0.205480
   14   H14        3.357159911     0.458108263     1.130280635       H   1  noname    0.168660
   15   H15        2.372645457    -1.649848321    -0.632161005       H   1  noname    0.124744
   16   H16        1.529752443    -1.473275963     0.894856961       H   1  noname    0.089591
   17   H17        0.371678102    -1.409958492    -1.912735548       H   1  noname    0.198979
   18   H18        0.011819281    -2.566429684    -0.652164212       H   1  noname    0.190372
   19   H19       -2.425029768    -1.981449205    -1.074283917       H   1  noname    0.171965
   20   H20       -4.293309907    -0.557660985    -0.366454061       H   1  noname    0.138541
   21   H21       -3.835429853     1.606834905     0.738994117       H   1  noname    0.140389
   22   H22       -1.517736532     2.312474359     1.118314229       H   1  noname    0.143929
   23   H23        0.959575935     0.925973738     1.592208538       H   1  noname    0.106146
   24   H24        0.861340403     2.074766819     0.276813543       H   1  noname    0.135629


@<TRIPOS>BOND
    1      1      2    1
    2      2      3    1
    3      3      4    1
    4      4      5    1
    5      5      6    2
    6      6      7    1
    7      7      8    2
    8      8      9    1
    9      9     10    2
   10     10     11    1
   11     11      2    1
   12     10      5    1
   13      1     12    1
   14      1     13    1
   15      1     14    1
   16      3     15    1
   17      3     16    1
   18      4     17    1
   19      4     18    1
   20      6     19    1
   21      7     20    1
   22      8     21    1
   23      9     22    1
   24     11     23    1
   25     11     24    1
#
#	File Created by: Spartan'20 Export
#

@<TRIPOS>MOLECULE
M0278
24 24
SMALL
USER_CHARGES


@<TRIPOS>ATOM
    1   C1        -2.761851122     0.000003653     0.096989854     C.3   1  noname   -0.539810
    2   N2        -1.367987292     0.000000947     0.472507291     N.3   1  noname   -0.366673
    3   C3        -0.687773219    -1.191246630     0.025397282     C.3   1  noname    0.189758
    4   N4         0.684001378    -1.184722225     0.472443117     N.3   1  noname   -0.366054
    5   C5         1.375548980    -0.000000729     0.025389406     C.3   1  noname    0.216272
    6   N6         0.683998334     1.184719673     0.472440624     N.3   1  noname   -0.366054
    7   C7        -0.687773377     1.191244822     0.025387425     C.3   1  noname    0.189766
    8   C8         1.380928565     2.391865922     0.096972070     C.3   1  noname   -0.547095
    9   C9         1.380932916    -2.391865373     0.096964254     C.3   1  noname   -0.547091
   10   H10       -2.919852485    -0.000011265    -0.985952907       H   1  noname    0.140330
   11   H11       -3.249984941     0.875937086     0.508457922       H   1  noname    0.198219
   12   H12       -3.249979220    -0.875920498     0.508480466       H   1  noname    0.198218
   13   H13       -1.186222236    -2.054596695     0.448929466       H   1  noname    0.124590
   14   H14       -0.741847393    -1.284838397    -1.074720453       H   1  noname    0.052402
   15   H15        1.483619577    -0.000003138    -1.074726183       H   1  noname    0.047843
   16   H16        2.372460729     0.000001459     0.448910850       H   1  noname    0.117110
   17   H17       -0.741845850     1.284830386    -1.074731472       H   1  noname    0.052400
   18   H18       -1.186223011     2.054599091     0.448912887       H   1  noname    0.124588
   19   H19        0.866391005     3.252552006     0.508453588       H   1  noname    0.200130
   20   H20        1.459982862     2.528743006    -0.985963374       H   1  noname    0.142064
   21   H21        2.383547547     2.376619734     0.508501328       H   1  noname    0.198447
   22   H22        1.459971276    -2.528740179    -0.985972607       H   1  noname    0.142063
   23   H23        0.866398421    -3.252550308     0.508449916       H   1  noname    0.200129
   24   H24        2.383558555    -2.376622347     0.508479249       H   1  noname    0.198447


@<TRIPOS>BOND
    1      1      2    1
    2      2      3    1
    3      3      4    1
    4      4      5    1
    5      5      6    1
    6      6      7    1
    7      6      8    1
    8      4      9    1
    9      7      2    1
   10      1     10    1
   11      1     11    1
   12      1     12    1
   13      3     13    1
   14      3     14    1
   15      5     15    1
   16      5     16    1
   17      7     17    1
   18      7     18    1
   19      8     19    1
   20      8     20    1
   21      8     21    1
   22      9     22    1
   23      9     23    1
   24      9     24    1
#
#	File Created by: Spartan'20 Export
#

@<TRIPOS>MOLECULE
M0279
24 25
SMALL
USER_CHARGES


@<TRIPOS>ATOM
    1   C1        -0.908992243     0.000000584    -2.254245017     C.3   1  noname   -0.582325
    2   N2        -0.847729150     0.000001385    -0.807151673     N.3   1  noname   -0.356732
    3   C3        -0.124429732    -1.138757208    -0.239523540     C.3   1  noname    0.333680
    4   C4        -0.556386970    -1.270551567     1.225135418     C.3   1  noname   -0.561667
    5   C5        -0.219314232    -0.000000375     2.019575314     C.3   1  noname    0.141882
    6   C6        -0.556386592     1.270551516     1.225136016     C.3   1  noname   -0.561667
    7   C7        -0.124428280     1.138759100    -0.239523186     C.3   1  noname    0.333682
    8   C8         1.376083154     0.774190587    -0.378967687     C.3   1  noname   -0.281716
    9   C9         1.376082155    -0.774190862    -0.378970272     C.3   1  noname   -0.281712
   10   H10       -1.453776807     0.875434285    -2.589550309       H   1  noname    0.193232
   11   H11       -1.453784612    -0.875429282    -2.589548832       H   1  noname    0.193232
   12   H12        0.063455592    -0.000004900    -2.750898714       H   1  noname    0.186908
   13   H13       -0.378511063    -2.045965256    -0.775870573       H   1  noname    0.060346
   14   H14       -0.079481992    -2.133913578     1.682992026       H   1  noname    0.130505
   15   H15       -1.627790890    -1.444003183     1.240190702       H   1  noname    0.169059
   16   H16       -0.746334255    -0.000000545     2.968960756       H   1  noname    0.046320
   17   H17        0.839261514    -0.000001067     2.264846371       H   1  noname    0.060883
   18   H18       -0.079483311     2.133913133     1.682995114       H   1  noname    0.130505
   19   H19       -1.627790887     1.444001729     1.240188648       H   1  noname    0.169059
   20   H20       -0.378509083     2.045968070    -0.775869216       H   1  noname    0.060345
   21   H21        1.780227119     1.161629201    -1.307693429       H   1  noname    0.093903
   22   H22        1.973898547     1.193913615     0.422747098       H   1  noname    0.114189
   23   H23        1.973897647    -1.193917332     0.422741847       H   1  noname    0.114188
   24   H24        1.780224369    -1.161628049    -1.307696862       H   1  noname    0.093902


@<TRIPOS>BOND
    1      1      2    1
    2      2      3    1
    3      3      4    1
    4      4      5    1
    5      5      6    1
    6      6      7    1
    7      7      8    1
    8      8      9    1
    9      7      2    1
   10      9      3    1
   11      1     10    1
   12      1     11    1
   13      1     12    1
   14      3     13    1
   15      4     14    1
   16      4     15    1
   17      5     16    1
   18      5     17    1
   19      6     18    1
   20      6     19    1
   21      7     20    1
   22      8     21    1
   23      8     22    1
   24      9     23    1
   25      9     24    1
#
#	File Created by: Spartan'20 Export
#

@<TRIPOS>MOLECULE
M0280
24 23
SMALL
USER_CHARGES


@<TRIPOS>ATOM
    1   C1         0.522220489     2.586547162     0.036547178     C.3   1  noname   -0.266688
    2   N2        -0.490792740     1.571701409     0.172858510     N.2   1  noname   -0.556673
    3   C3        -0.239159609     0.354574071    -0.027254554     C.2   1  noname    0.648969
    4   N4        -1.289888512    -0.549008008    -0.186617320   N.pl3   1  noname   -0.172034
    5   C5        -2.611621072     0.024109598    -0.336186816     C.3   1  noname   -0.660781
    6   C6        -1.282431332    -1.737627556     0.646894019     C.3   1  noname   -0.472614
    7   N7         1.023487464    -0.220006734    -0.147936504   N.pl3   1  noname    0.131032
    8   C8         1.329161104    -1.196685723    -1.166672350     C.3   1  noname   -0.557199
    9   C9         2.084180764     0.083188648     0.780664140     C.3   1  noname   -0.592272
   10   H10        0.068436971     3.464255666    -0.408547930       H   1  noname    0.135689
   11   H11        0.911402919     2.892549324     1.004085318       H   1  noname    0.118307
   12   H12        1.361392610     2.288658987    -0.586699538       H   1  noname    0.079675
   13   H13       -3.000391197     0.424546042     0.596604395       H   1  noname    0.197559
   14   H14       -2.587488353     0.824023561    -1.058217270       H   1  noname    0.216256
   15   H15       -3.280758174    -0.752181931    -0.689909402       H   1  noname    0.224772
   16   H16       -0.285339457    -2.138441110     0.742205158       H   1  noname    0.145007
   17   H17       -1.909531688    -2.496266020     0.195162054       H   1  noname    0.182317
   18   H18       -1.665025056    -1.531662123     1.647527731       H   1  noname    0.167585
   19   H19        1.580663927    -2.164958206    -0.736832409       H   1  noname    0.166130
   20   H20        2.179173142    -0.867368737    -1.759311190       H   1  noname    0.167378
   21   H21        0.483060871    -1.322868096    -1.824189934       H   1  noname    0.160001
   22   H22        2.470479073    -0.836459969     1.217031660       H   1  noname    0.163653
   23   H23        1.713259308     0.700727479     1.584213086       H   1  noname    0.206082
   24   H24        2.915508549     0.598652267     0.304581969       H   1  noname    0.167850


@<TRIPOS>BOND
    1      1      2    1
    2      2      3    2
    3      3      4    1
    4      4      5    1
    5      4      6    1
    6      3      7    1
    7      7      8    1
    8      7      9    1
    9      1     10    1
   10      1     11    1
   11      1     12    1
   12      5     13    1
   13      5     14    1
   14      5     15    1
   15      6     16    1
   16      6     17    1
   17      6     18    1
   18      8     19    1
   19      8     20    1
   20      8     21    1
   21      9     22    1
   22      9     23    1
   23      9     24    1
#
#	File Created by: Spartan'20 Export
#

@<TRIPOS>MOLECULE
M0281
26 26
SMALL
USER_CHARGES


@<TRIPOS>ATOM
    1   C1        -2.269539792     2.054280349    -0.250034556     C.3   1  noname   -0.147536
    2   N2        -0.885632433     1.691515279    -0.066435047     N.2   1  noname   -0.531249
    3   C3        -0.501138492     0.497861623     0.010354562     C.2   1  noname    0.440939
    4   C4         0.980300147     0.251302841     0.021837580     C.2   1  noname   -0.063378
    5   C5         1.524753532    -0.840307526     0.688032075     C.2   1  noname   -0.112911
    6   C6         2.897253318    -1.033371754     0.723268856     C.2   1  noname   -0.138325
    7   C7         3.740605298    -0.140857014     0.083393787     C.2   1  noname   -0.138897
    8   C8         3.205828908     0.949509694    -0.586792870     C.2   1  noname   -0.120832
    9   C9         1.837015026     1.145765907    -0.614568081     C.2   1  noname   -0.129755
   10   N10       -1.295394922    -0.652262654     0.137538946   N.pl3   1  noname    0.169770
   11   C11       -2.465323751    -0.677827527     0.982102905     C.3   1  noname   -0.751105
   12   C12       -1.220448610    -1.695898685    -0.860676327     C.3   1  noname   -0.422620
   13   H13       -2.750572289     2.269324998     0.699877781       H   1  noname    0.101744
   14   H14       -2.855198449     1.301275720    -0.768336997       H   1  noname    0.085483
   15   H15       -2.299482198     2.966870496    -0.834319510       H   1  noname    0.105490
   16   H16        0.874552847    -1.532570777     1.189792614       H   1  noname    0.082419
   17   H17        3.304142830    -1.877495550     1.251053110       H   1  noname    0.131569
   18   H18        4.805386544    -0.291569101     0.106014923       H   1  noname    0.132282
   19   H19        3.855891057     1.646016979    -1.086864868       H   1  noname    0.126430
   20   H20        1.418367874     1.992998132    -1.122063055       H   1  noname    0.131603
   21   H21       -3.400217511    -0.538100793     0.442788216       H   1  noname    0.200746
   22   H22       -2.515389095    -1.640743463     1.483969258       H   1  noname    0.203519
   23   H23       -2.388249813     0.087799866     1.741036063       H   1  noname    0.239239
   24   H24       -1.301646423    -2.672634975    -0.390865607       H   1  noname    0.133285
   25   H25       -2.019803173    -1.609791703    -1.597097794       H   1  noname    0.132779
   26   H26       -0.276060429    -1.651090361    -1.383005964       H   1  noname    0.139312


@<TRIPOS>BOND
    1      1      2    1
    2      2      3    2
    3      3      4    1
    4      4      5    2
    5      5      6    1
    6      6      7    2
    7      7      8    1
    8      8      9    2
    9      3     10    1
   10     10     11    1
   11     10     12    1
   12      9      4    1
   13      1     13    1
   14      1     14    1
   15      1     15    1
   16      5     16    1
   17      6     17    1
   18      7     18    1
   19      8     19    1
   20      9     20    1
   21     11     21    1
   22     11     22    1
   23     11     23    1
   24     12     24    1
   25     12     25    1
   26     12     26    1
#
#	File Created by: Spartan'20 Export
#

@<TRIPOS>MOLECULE
M0282
16 15
SMALL
USER_CHARGES


@<TRIPOS>ATOM
    1   C1         2.668523676     0.309481511     0.442341021     C.3   1  noname   -0.349259
    2   N2         1.331590463     0.572247743    -0.027085881     N.2   1  noname   -0.469146
    3   C3         0.406874879    -0.162651205     0.389297408     C.2   1  noname    0.468633
    4   N4        -0.918056646     0.022593536     0.092184163   N.pl3   1  noname   -0.201186
    5   C5        -1.256542343     1.029809023    -0.888709972     C.3   1  noname   -0.504010
    6   C6        -1.791747803    -1.126185796     0.148472734     C.3   1  noname   -0.440268
    7   H7         3.046507839     1.171776360     0.982659749       H   1  noname    0.149199
    8   H8         2.740324378    -0.558473374     1.099953687       H   1  noname    0.098262
    9   H9         3.328119925     0.147436630    -0.404195402       H   1  noname    0.155286
   10   H10        0.579328643    -1.002330639     1.056538093       H   1  noname    0.063246
   11   H11       -0.694228565     1.929078511    -0.692437562       H   1  noname    0.171333
   12   H12       -2.315338231     1.248353130    -0.816521678       H   1  noname    0.197135
   13   H13       -1.035069219     0.704592868    -1.904384556       H   1  noname    0.177007
   14   H14       -1.504330440    -1.772280309     0.969184178       H   1  noname    0.140353
   15   H15       -1.775696472    -1.712890898    -0.770269774       H   1  noname    0.167003
   16   H16       -2.810260083    -0.800557092     0.322973792       H   1  noname    0.176413


@<TRIPOS>BOND
    1      1      2    1
    2      2      3    2
    3      3      4    1
    4      4      5    1
    5      4      6    1
    6      1      7    1
    7      1      8    1
    8      1      9    1
    9      3     10    1
   10      5     11    1
   11      5     12    1
   12      5     13    1
   13      6     14    1
   14      6     15    1
   15      6     16    1
#
#	File Created by: Spartan'20 Export
#

@<TRIPOS>MOLECULE
M0283
10 9
SMALL
USER_CHARGES


@<TRIPOS>ATOM
    1   C1         0.108604848     1.209582511     0.046106614     C.3   1  noname   -0.161819
    2   N2        -0.666636268    -0.000001089     0.218530815     N.3   1  noname   -0.643505
    3   C3         0.108607119    -1.209583108     0.046097432     C.3   1  noname   -0.161798
    4   H4         0.864271924     1.266451241     0.822541124       H   1  noname    0.123732
    5   H5         0.617409565     1.275905317    -0.919118968       H   1  noname    0.080967
    6   H6        -0.537271110     2.073921046     0.150396760       H   1  noname    0.093320
    7   H7        -1.439394422     0.000003540    -0.418320786       H   1  noname    0.371097
    8   H8         0.864316332    -1.266443002     0.822482939       H   1  noname    0.123730
    9   H9        -0.537259846    -2.073914643     0.150431240       H   1  noname    0.093313
   10   H10        0.617351859    -1.275921812    -0.919147170       H   1  noname    0.080963


@<TRIPOS>BOND
    1      1      2    1
    2      2      3    1
    3      1      4    1
    4      1      5    1
    5      1      6    1
    6      2      7    1
    7      3      8    1
    8      3      9    1
    9      3     10    1
#
#	File Created by: Spartan'20 Export
#

@<TRIPOS>MOLECULE
M0284
19 19
SMALL
USER_CHARGES


@<TRIPOS>ATOM
    1   C1         3.343329822    -0.589182536     0.486202832     C.3   1  noname   -0.340541
    2   N2         1.895717802    -0.593634178     0.467787876   N.pl3   1  noname   -0.505818
    3   C3         1.217116816     0.188801901    -0.408192351     C.2   1  noname    0.676566
    4   O4         1.776370030     0.842578901    -1.247362535     O.2   1  noname   -0.567084
    5   C5        -0.279496689     0.193462914    -0.278586018     C.2   1  noname   -0.092714
    6   C6        -0.964512338     1.307630600    -0.750023479     C.2   1  noname   -0.096287
    7   C7        -2.342717362     1.370892664    -0.655446942     C.2   1  noname   -0.135145
    8   C8        -3.049982569     0.312705339    -0.104431830     C.2   1  noname   -0.115383
    9   C9        -2.375861886    -0.809160639     0.349085924     C.2   1  noname   -0.128259
   10   C10       -0.994581395    -0.867775781     0.264553300     C.2   1  noname   -0.136376
   11   H11        3.684744894    -1.396960229     1.120464675       H   1  noname    0.144948
   12   H12        3.718022010    -0.745983079    -0.514156245       H   1  noname    0.172946
   13   H13        3.744941371     0.348127089     0.858205056       H   1  noname    0.142689
   14   H14        1.427074881    -0.878392093     1.295721898       H   1  noname    0.333478
   15   H15       -0.405168738     2.111900196    -1.188271898       H   1  noname    0.137340
   16   H16       -2.864954487     2.239476560    -1.014090957       H   1  noname    0.133539
   17   H17       -4.122255475     0.359471593    -0.035963785       H   1  noname    0.132837
   18   H18       -2.922404001    -1.638610291     0.760536773       H   1  noname    0.133279
   19   H19       -0.485382687    -1.755348931     0.593967706       H   1  noname    0.109985


@<TRIPOS>BOND
    1      1      2    1
    2      2      3    1
    3      3      4    2
    4      3      5    1
    5      5      6    2
    6      6      7    1
    7      7      8    2
    8      8      9    1
    9      9     10    2
   10     10      5    1
   11      1     11    1
   12      1     12    1
   13      1     13    1
   14      2     14    1
   15      6     15    1
   16      7     16    1
   17      8     17    1
   18      9     18    1
   19     10     19    1
#
#	File Created by: Spartan'20 Export
#

@<TRIPOS>MOLECULE
M0285
9 8
SMALL
USER_CHARGES


@<TRIPOS>ATOM
    1   C1        -1.110617801    -0.130408583     0.060195009     C.3   1  noname   -0.203888
    2   N2         0.282710086    -0.431777870    -0.184122467   N.pl3   1  noname   -0.409820
    3   C3         1.282088783     0.444429334     0.034488864     C.2   1  noname    0.395886
    4   O4         1.155382728     1.561447169     0.441251489     O.2   1  noname   -0.508462
    5   H5        -1.517171338    -0.768306248     0.837544779       H   1  noname    0.100265
    6   H6        -1.181675309     0.898025913     0.378333894       H   1  noname    0.163724
    7   H7        -1.696169570    -0.261219096    -0.842425271       H   1  noname    0.099965
    8   H8         0.525095162    -1.336927276    -0.518601935       H   1  noname    0.300897
    9   H9         2.260357259     0.024736657    -0.206664363       H   1  noname    0.061434


@<TRIPOS>BOND
    1      1      2    1
    2      2      3    1
    3      3      4    2
    4      1      5    1
    5      1      6    1
    6      1      7    1
    7      2      8    1
    8      3      9    1
#
#	File Created by: Spartan'20 Export
#

@<TRIPOS>MOLECULE
M0286
12 11
SMALL
USER_CHARGES


@<TRIPOS>ATOM
    1   C1        -1.342815757     0.633397141     0.551769323     C.3   1  noname   -0.194137
    2   N2        -0.799837107    -0.687362362     0.303691306     N.3   1  noname   -0.610164
    3   C3         0.255195978    -0.722643527    -0.690046536     C.3   1  noname    0.051941
    4   C4         1.502664713    -0.104543877    -0.201986108     C.1   1  noname    0.053339
    5   C5         2.513760770     0.395418750     0.166433276     C.1   1  noname   -0.486960
    6   H6        -0.576124549     1.264537061     0.983124109       H   1  noname    0.147606
    7   H7        -1.721022197     1.126459221    -0.347447195       H   1  noname    0.083693
    8   H8        -2.153342235     0.556300067     1.266819428       H   1  noname    0.106673
    9   H9        -1.530270320    -1.308558199     0.017813861       H   1  noname    0.344476
   10   H10        0.461461838    -1.759931392    -0.928651199       H   1  noname    0.097721
   11   H11       -0.023808993    -0.228374983    -1.623199367       H   1  noname    0.083273
   12   H12        3.414137858     0.835302100     0.501679102       H   1  noname    0.322540


@<TRIPOS>BOND
    1      1      2    1
    2      2      3    1
    3      3      4    1
    4      4      5    3
    5      1      6    1
    6      1      7    1
    7      1      8    1
    8      2      9    1
    9      3     10    1
   10      3     11    1
   11      5     12    1
#
#	File Created by: Spartan'20 Export
#

@<TRIPOS>MOLECULE
M0287
11 10
SMALL
USER_CHARGES


@<TRIPOS>ATOM
    1   C1        -1.551514914    -0.083621406    -0.140395916     C.3   1  noname   -0.319811
    2   N2        -0.178805416    -0.443728242    -0.435656304     N.3   1  noname   -0.632958
    3   C3         0.781406877     0.392721056     0.245426066     C.3   1  noname    0.130645
    4   C4         2.159991710     0.006304469    -0.115040201     C.1   1  noname    0.217437
    5   N5         3.223106460    -0.298206388    -0.367492424     N.1   1  noname   -0.408541
    6   H6        -1.752619579     0.913444753    -0.516484263       H   1  noname    0.155859
    7   H7        -2.214405293    -0.770080885    -0.651243086       H   1  noname    0.157913
    8   H8        -1.791830287    -0.098875066     0.924744831       H   1  noname    0.112700
    9   H9        -0.014164917    -1.405783980    -0.216014919       H   1  noname    0.389479
   10   H10        0.634711019     1.421723963    -0.060947389       H   1  noname    0.123413
   11   H11        0.704124340     0.366101726     1.333103604       H   1  noname    0.073864


@<TRIPOS>BOND
    1      1      2    1
    2      2      3    1
    3      3      4    1
    4      4      5    3
    5      1      6    1
    6      1      7    1
    7      1      8    1
    8      2      9    1
    9      3     10    1
   10      3     11    1
#
#	File Created by: Spartan'20 Export
#

@<TRIPOS>MOLECULE
M0288
14 13
SMALL
USER_CHARGES


@<TRIPOS>ATOM
    1   C1        -1.968929162     0.736873367    -0.242693916     C.3   1  noname   -0.368399
    2   N2        -0.551667782     0.612556782     0.021813408     N.3   1  noname   -0.590324
    3   C3        -0.056212431    -0.739752349    -0.100528112     C.3   1  noname    0.251991
    4   C4         1.430976382    -0.848130641     0.113147477     C.2   1  noname   -0.248934
    5   C5         2.281850724     0.157206741     0.170285275     C.2   1  noname   -0.389539
    6   H6        -2.592615612     0.090426356     0.379781976       H   1  noname    0.111101
    7   H7        -2.277998063     1.763012064    -0.082260191       H   1  noname    0.154666
    8   H8        -2.167622470     0.490369417    -1.280058906       H   1  noname    0.156791
    9   H9        -0.344651992     0.959024280     0.937602567       H   1  noname    0.364781
   10   H10       -0.291413888    -1.097062310    -1.100908335       H   1  noname    0.069519
   11   H11       -0.556952540    -1.430919202     0.585919004       H   1  noname    0.010029
   12   H12        1.798511925    -1.856965947     0.220356993       H   1  noname    0.142472
   13   H13        3.332311981    -0.013580043     0.325187425       H   1  noname    0.178432
   14   H14        1.964412929     1.176941485     0.052355335       H   1  noname    0.157415


@<TRIPOS>BOND
    1      1      2    1
    2      2      3    1
    3      3      4    1
    4      4      5    2
    5      1      6    1
    6      1      7    1
    7      1      8    1
    8      2      9    1
    9      3     10    1
   10      3     11    1
   11      4     12    1
   12      5     13    1
   13      5     14    1
#
#	File Created by: Spartan'20 Export
#

@<TRIPOS>MOLECULE
M0289
14 13
SMALL
USER_CHARGES


@<TRIPOS>ATOM
    1   C1        -1.940232404     0.209213037     0.023089346     C.3   1  noname   -0.142455
    2   N2        -0.817609016     0.738025723     0.769194788     N.3   1  noname   -0.741297
    3   C3         0.471104244     0.684361138     0.126232962     C.3   1  noname    0.080875
    4   C4         1.024594912    -0.738775060    -0.113290791     C.3   1  noname   -0.073027
    5   C5         2.360271059    -0.704793752    -0.729401679     C.1   1  noname    0.203867
    6   N6         3.389505248    -0.657936824    -1.205248347     N.1   1  noname   -0.416591
    7   H7        -2.852437424     0.397861425     0.576387540       H   1  noname    0.111294
    8   H8        -2.017002077     0.730607142    -0.925269758       H   1  noname    0.122654
    9   H9        -1.891482647    -0.860977645    -0.185398457       H   1  noname    0.063277
   10   H10       -0.780659662     0.351771897     1.690927318       H   1  noname    0.385097
   11   H11        1.179763352     1.234839343     0.733973200       H   1  noname    0.074999
   12   H12        0.403198762     1.201233939    -0.824609129       H   1  noname    0.110951
   13   H13        0.371197580    -1.308696731    -0.762930466       H   1  noname    0.116467
   14   H14        1.099788075    -1.276733629     0.826343472       H   1  noname    0.103888


@<TRIPOS>BOND
    1      1      2    1
    2      2      3    1
    3      3      4    1
    4      4      5    1
    5      5      6    3
    6      1      7    1
    7      1      8    1
    8      1      9    1
    9      2     10    1
   10      3     11    1
   11      3     12    1
   12      4     13    1
   13      4     14    1
#
#	File Created by: Spartan'20 Export
#

@<TRIPOS>MOLECULE
M0290
20 20
SMALL
USER_CHARGES


@<TRIPOS>ATOM
    1   C1         3.324503131     0.236825396    -0.247208261     C.3   1  noname   -0.240601
    2   N2         1.908834460     0.531059410    -0.183749697     N.3   1  noname   -0.619188
    3   C3         1.078350296    -0.646479826    -0.020541609     C.3   1  noname   -0.071725
    4   C4        -0.393634088    -0.294719352     0.030927671     C.2   1  noname    0.173515
    5   C5        -0.948740076     0.562523382    -0.916063247     C.2   1  noname   -0.233884
    6   C6        -2.298234671     0.866454802    -0.886811961     C.2   1  noname   -0.080560
    7   C7        -3.118035330     0.320320595     0.090819878     C.2   1  noname   -0.186340
    8   C8        -2.575628613    -0.529372553     1.037415355     C.2   1  noname   -0.081839
    9   C9        -1.220559610    -0.831695532     1.006559329     C.2   1  noname   -0.257675
   10   H10        3.534167431    -0.348522263    -1.136246698       H   1  noname    0.137855
   11   H11        3.882624594     1.162295468    -0.321464477       H   1  noname    0.121039
   12   H12        3.699219728    -0.320858107     0.614292700       H   1  noname    0.092908
   13   H13        1.722209501     1.177204010     0.558812103       H   1  noname    0.368189
   14   H14        1.265126039    -1.297871202    -0.870646914       H   1  noname    0.121616
   15   H15        1.340903560    -1.222804932     0.870065721       H   1  noname    0.087032
   16   H16       -0.313179062     0.993414423    -1.667679456       H   1  noname    0.147728
   17   H17       -2.712111974     1.529869048    -1.625763857       H   1  noname    0.123336
   18   H18       -4.166737218     0.558424691     0.113268985       H   1  noname    0.137329
   19   H19       -3.200677170    -0.955065234     1.802757152       H   1  noname    0.125365
   20   H20       -0.808400927    -1.491002224     1.751257283       H   1  noname    0.135899


@<TRIPOS>BOND
    1      1      2    1
    2      2      3    1
    3      3      4    1
    4      4      5    2
    5      5      6    1
    6      6      7    2
    7      7      8    1
    8      8      9    2
    9      9      4    1
   10      1     10    1
   11      1     11    1
   12      1     12    1
   13      2     13    1
   14      3     14    1
   15      3     15    1
   16      5     16    1
   17      6     17    1
   18      7     18    1
   19      8     19    1
   20      9     20    1
#
#	File Created by: Spartan'20 Export
#

@<TRIPOS>MOLECULE
M0291
16 16
SMALL
USER_CHARGES


@<TRIPOS>ATOM
    1   C1        -2.587375384     0.000357412     0.123979812     C.3   1  noname   -0.269894
    2   N2        -1.444547161     0.864338171     0.271273891     N.3   1  noname   -0.713428
    3   C3        -0.152716922     0.434301359     0.122513096     C.2   1  noname    1.001145
    4   C4         0.168844589    -0.762988768    -0.532336661     C.2   1  noname   -0.641714
    5   C5         1.499154802    -1.091874613    -0.665249281     C.2   1  noname    0.183106
    6   C6         2.477202194    -0.249775486    -0.153566068     C.2   1  noname   -0.587792
    7   C7         2.044630603     0.897720967     0.480200798     C.2   1  noname    0.434483
    8   N8         0.776288705     1.236857215     0.621689099     N.2   1  noname   -0.817133
    9   H9        -3.475457004     0.562557575     0.379486414       H   1  noname    0.156481
   10   H10       -2.542437415    -0.879660056     0.763117863       H   1  noname    0.111951
   11   H11       -2.694884369    -0.328739807    -0.904101094       H   1  noname    0.131695
   12   H12       -1.525995306     1.615718462     0.918152551       H   1  noname    0.386667
   13   H13       -0.597119830    -1.404473019    -0.923010730       H   1  noname    0.220653
   14   H14        1.773785758    -2.003906435    -1.165927912       H   1  noname    0.122491
   15   H15        3.523181695    -0.475434748    -0.238883988       H   1  noname    0.207346
   16   H16        2.757445045     1.585001773     0.902662209       H   1  noname    0.073946


@<TRIPOS>BOND
    1      1      2    1
    2      2      3    1
    3      3      4    2
    4      4      5    1
    5      5      6    2
    6      6      7    1
    7      7      8    2
    8      8      3    1
    9      1      9    1
   10      1     10    1
   11      1     11    1
   12      2     12    1
   13      4     13    1
   14      5     14    1
   15      6     15    1
   16      7     16    1
#
#	File Created by: Spartan'20 Export
#

@<TRIPOS>MOLECULE
M0292
6 5
SMALL
USER_CHARGES


@<TRIPOS>ATOM
    1   C1        -0.124562677    -0.000002927    -0.335577952     C.3   1  noname   -0.034893
    2   O2        -0.182316009    -0.000011546     1.063773444     O.3   1  noname   -0.631408
    3   H3         0.377080844    -0.883698517    -0.722954598       H   1  noname    0.059336
    4   H4        -1.143551592     0.000003271    -0.697461920       H   1  noname    0.119367
    5   H5         0.377087948     0.883696961    -0.722945265       H   1  noname    0.059334
    6   H6         0.696261486     0.000012759     1.415166290       H   1  noname    0.428264


@<TRIPOS>BOND
    1      1      2    1
    2      1      3    1
    3      1      4    1
    4      1      5    1
    5      2      6    1
#
#	File Created by: Spartan'20 Export
#

@<TRIPOS>MOLECULE
M0293
11 10
SMALL
USER_CHARGES


@<TRIPOS>ATOM
    1   C1         0.225030602    -0.000099329     1.902331190     C.3   1  noname   -0.323587
    2   O2         0.542588974    -0.000207039     0.513917393     O.3   1  noname   -0.403642
    3   C3        -0.460599765     0.000070614    -0.322269775     C.2   1  noname    0.897560
    4   O4        -1.604153331     0.000446112    -0.036817721     O.2   1  noname   -0.558815
    5   C5         0.049982253     0.000023605    -1.784875278     C.3   1  noname   -0.036718
    6   Cl6       -1.307624850    -0.000343389    -2.902660036      Cl   1  noname   -0.037831
    7   Cl7        1.033471287     1.452139028    -2.043588395      Cl   1  noname   -0.039295
    8   Cl8        1.033975841    -1.451812230    -2.043429449      Cl   1  noname   -0.039484
    9   H9        -0.343170142    -0.883359970     2.152095767       H   1  noname    0.174846
   10   H10       -0.342703834     0.883439366     2.152035015       H   1  noname    0.174819
   11   H11        1.173202967    -0.000296767     2.413261290       H   1  noname    0.192147


@<TRIPOS>BOND
    1      1      2    1
    2      2      3    1
    3      3      4    2
    4      3      5    1
    5      5      6    1
    6      5      7    1
    7      5      8    1
    8      1      9    1
    9      1     10    1
   10      1     11    1
#
#	File Created by: Spartan'20 Export
#

@<TRIPOS>MOLECULE
M0294
12 11
SMALL
USER_CHARGES


@<TRIPOS>ATOM
    1   C1        -2.319144473     0.000000808    -0.078639416     C.3   1  noname   -0.233391
    2   O2        -1.069673850     0.000027435    -0.747154660     O.3   1  noname   -0.451612
    3   C3        -0.000028013     0.000007556     0.014037178     C.2   1  noname    1.141847
    4   O4        -0.000018748    -0.000015970     1.203667606     O.2   1  noname   -0.663968
    5   O5         1.069650827     0.000016719    -0.747121620     O.3   1  noname   -0.451646
    6   C6         2.319180943    -0.000000490    -0.078647737     C.3   1  noname   -0.233391
    7   H7        -2.418833441     0.881708875     0.537384970       H   1  noname    0.138127
    8   H8        -2.418802293    -0.881709721     0.537391868       H   1  noname    0.138126
    9   H9        -3.064494610    -0.000019458    -0.857841764       H   1  noname    0.169814
   10   H10        3.064522137    -0.000021799    -0.857866755       H   1  noname    0.169826
   11   H11        2.418807520    -0.881699392     0.537402128       H   1  noname    0.138133
   12   H12        2.418834003     0.881705437     0.537388204       H   1  noname    0.138134


@<TRIPOS>BOND
    1      1      2    1
    2      2      3    1
    3      3      4    2
    4      3      5    1
    5      5      6    1
    6      1      7    1
    7      1      8    1
    8      1      9    1
    9      6     10    1
   10      6     11    1
   11      6     12    1
#
#	File Created by: Spartan'20 Export
#

@<TRIPOS>MOLECULE
M0295
17 17
SMALL
USER_CHARGES


@<TRIPOS>ATOM
    1   C1        -0.531896030    -0.000012795    -3.254273862     C.3   1  noname   -0.308867
    2   O2        -0.690933730    -0.000021234    -1.844980136     O.3   1  noname   -0.385216
    3   C3         0.412441023     0.000018368    -1.116839215     C.2   1  noname    0.900426
    4   O4         1.507123414     0.000051459    -1.585718510     O.2   1  noname   -0.597704
    5   C5         0.143635229     0.000007667     0.345394762     C.2   1  noname   -0.540020
    6   C6         1.217798732     0.000000838     1.226140959     C.2   1  noname    0.282610
    7   C7         0.963228161    -0.000007207     2.582214489     C.2   1  noname   -0.550772
    8   C8        -0.359115245    -0.000006782     2.997225810     C.2   1  noname    0.511653
    9   N9        -1.389758930     0.000000218     2.170625788     N.2   1  noname   -0.693553
   10   C10       -1.140603503     0.000007923     0.874880344     C.2   1  noname    0.508078
   11   H11        0.005031513    -0.881397791    -3.573043186       H   1  noname    0.163820
   12   H12       -1.530748697     0.000005685    -3.661265278       H   1  noname    0.174196
   13   H13        0.005058850     0.881360523    -3.573041973       H   1  noname    0.163819
   14   H14        2.219493876     0.000001858     0.839784685       H   1  noname    0.093607
   15   H15        1.760042757    -0.000012984     3.302056130       H   1  noname    0.196398
   16   H16       -0.596792687    -0.000011650     4.046651887       H   1  noname    0.040433
   17   H17       -1.994004732     0.000015904     0.224187306       H   1  noname    0.041091


@<TRIPOS>BOND
    1      1      2    1
    2      2      3    1
    3      3      4    2
    4      3      5    1
    5      5      6    2
    6      6      7    1
    7      7      8    2
    8      8      9    1
    9      9     10    2
   10     10      5    1
   11      1     11    1
   12      1     12    1
   13      1     13    1
   14      6     14    1
   15      7     15    1
   16      8     16    1
   17     10     17    1
#
#	File Created by: Spartan'20 Export
#

@<TRIPOS>MOLECULE
M0296
9 8
SMALL
USER_CHARGES


@<TRIPOS>ATOM
    1   C1        -1.167869357    -0.450306201    -0.004762669     C.3   1  noname   -0.333729
    2   O2        -0.105520328     0.102013110    -0.751164093     O.3   1  noname   -0.224515
    3   C3         0.978085406     0.477406868    -0.043549131     C.3   1  noname    0.140641
    4   Cl4        1.943895321     1.566171610    -1.040811419      Cl   1  noname   -0.101200
    5   Cl5        1.968264147    -0.932299709     0.469066822      Cl   1  noname   -0.131757
    6   H6        -0.882968698    -1.397497173     0.434510546       H   1  noname    0.157091
    7   H7        -1.484854544     0.234908709     0.775133303       H   1  noname    0.148877
    8   H8        -1.976244312    -0.600989944    -0.701980900       H   1  noname    0.185339
    9   H9         0.727212364     1.000592729     0.863557540       H   1  noname    0.159254


@<TRIPOS>BOND
    1      1      2    1
    2      2      3    1
    3      3      4    1
    4      3      5    1
    5      1      6    1
    6      1      7    1
    7      1      8    1
    8      3      9    1
#
#	File Created by: Spartan'20 Export
#

@<TRIPOS>MOLECULE
M0297
21 20
SMALL
USER_CHARGES


@<TRIPOS>ATOM
    1   C1         0.124660945     1.791060755     1.545626118     C.3   1  noname   -0.326891
    2   O2         0.782169560     0.825282771     0.760281144     O.3   1  noname   -0.360973
    3   C3         0.000024462     0.000020246    -0.000242799     C.3   1  noname    0.910486
    4   O4         0.825089035    -0.782126916    -0.760950384     O.3   1  noname   -0.359826
    5   C5         1.791589105    -0.124750285    -1.545442148     C.3   1  noname   -0.339708
    6   O6        -0.824994759     0.782142438    -0.760990040     O.3   1  noname   -0.359573
    7   C7        -1.791480499     0.124761459    -1.545507284     C.3   1  noname   -0.339908
    8   O8        -0.782131763    -0.824873567     0.760557050     O.3   1  noname   -0.360942
    9   C9        -0.124787136    -1.791118482     1.545393639     C.3   1  noname   -0.326856
   10   H10       -0.663416162     1.342507135     2.135835955       H   1  noname    0.153613
   11   H11        0.875122263     2.204367116     2.203597316       H   1  noname    0.165679
   12   H12       -0.289914595     2.575166326     0.928592803       H   1  noname    0.141719
   13   H13        2.577360723     0.286175374    -0.927609782       H   1  noname    0.144680
   14   H14        2.202702294    -0.874717515    -2.205979881       H   1  noname    0.169877
   15   H15        1.344201430     0.666393093    -2.133125651       H   1  noname    0.156445
   16   H16       -2.577044357    -0.286513907    -0.927719797       H   1  noname    0.144724
   17   H17       -1.343954050    -0.666067715    -2.133439299       H   1  noname    0.156494
   18   H18       -2.202770419     0.874855789    -2.205798767       H   1  noname    0.169895
   19   H19        0.288452047    -2.575787696     0.927871256       H   1  noname    0.141903
   20   H20        0.664495865    -1.343055418     2.134862517       H   1  noname    0.153544
   21   H21       -0.875373990    -2.203721002     2.204188034       H   1  noname    0.165620


@<TRIPOS>BOND
    1      1      2    1
    2      2      3    1
    3      3      4    1
    4      4      5    1
    5      3      6    1
    6      6      7    1
    7      3      8    1
    8      8      9    1
    9      1     10    1
   10      1     11    1
   11      1     12    1
   12      5     13    1
   13      5     14    1
   14      5     15    1
   15      7     16    1
   16      7     17    1
   17      7     18    1
   18      9     19    1
   19      9     20    1
   20      9     21    1
#
#	File Created by: Spartan'20 Export
#

@<TRIPOS>MOLECULE
M0298
17 16
SMALL
USER_CHARGES


@<TRIPOS>ATOM
    1   C1         1.856303184    -1.430787416    -0.042607856     C.3   1  noname   -0.321989
    2   O2         0.568301837    -1.153705647    -0.520923965     O.3   1  noname   -0.355363
    3   C3         0.000479234     0.000573954    -0.056722773     C.3   1  noname    0.693823
    4   O4        -1.284348742     0.086177954    -0.516945641     O.3   1  noname   -0.350418
    5   C5        -2.166212087    -0.892988463    -0.041582595     C.3   1  noname   -0.348445
    6   O6         0.716702313     1.070129246    -0.518527160     O.3   1  noname   -0.354816
    7   C7         0.309513593     2.323638116    -0.043510361     C.3   1  noname   -0.331478
    8   H8         1.878666941    -1.432975905     1.045368653       H   1  noname    0.117058
    9   H9         2.116356326    -2.416826013    -0.399849171       H   1  noname    0.176060
   10   H10        2.575044369    -0.710050250    -0.409742279       H   1  noname    0.146952
   11   H11        0.001381365    -0.000334836     1.039378995       H   1  noname    0.021014
   12   H12       -1.901616728    -1.872765159    -0.414262720       H   1  noname    0.153939
   13   H13       -2.176462733    -0.916512354     1.045928524       H   1  noname    0.123448
   14   H14       -3.151269391    -0.625322656    -0.395814439       H   1  noname    0.182622
   15   H15       -0.670972970     2.584769806    -0.417206941       H   1  noname    0.150036
   16   H16        0.293339142     2.344701247     1.043974638       H   1  noname    0.119641
   17   H17        1.034794347     3.042278375    -0.396954909       H   1  noname    0.177916


@<TRIPOS>BOND
    1      1      2    1
    2      2      3    1
    3      3      4    1
    4      4      5    1
    5      3      6    1
    6      6      7    1
    7      1      8    1
    8      1      9    1
    9      1     10    1
   10      3     11    1
   11      5     12    1
   12      5     13    1
   13      5     14    1
   14      7     15    1
   15      7     16    1
   16      7     17    1
#
#	File Created by: Spartan'20 Export
#

@<TRIPOS>MOLECULE
M0299
17 16
SMALL
USER_CHARGES


@<TRIPOS>ATOM
    1   C1         2.587552778     0.901963719    -0.300512475     C.3   1  noname   -0.308642
    2   O2         1.246099034     0.592113359    -0.499000134     O.3   1  noname   -0.277089
    3   C3         0.854247770    -0.638653786     0.035307888     C.3   1  noname   -0.070952
    4   C4        -0.625252801    -0.854311764    -0.230183967     C.3   1  noname   -0.316383
    5   C5        -1.523567129     0.165240652     0.462182488     C.3   1  noname    0.427379
    6   N6        -2.923167034    -0.138375349     0.193260058     N.3   1  noname   -1.031386
    7   H7         2.771962270     1.866410659    -0.754132269       H   1  noname    0.157858
    8   H8         3.240511283     0.164335352    -0.764344062       H   1  noname    0.132284
    9   H9         2.831365251     0.958679231     0.759152410       H   1  noname    0.126652
   10   H10        1.434802719    -1.442016704    -0.417115728       H   1  noname    0.108081
   11   H11        1.055400760    -0.659544393     1.107267566       H   1  noname    0.094867
   12   H12       -0.904800154    -1.850163665     0.100908798       H   1  noname    0.113470
   13   H13       -0.790095868    -0.817286607    -1.304608851       H   1  noname    0.133846
   14   H14       -1.373050931     0.102355763     1.535836722       H   1  noname    0.014886
   15   H15       -1.232837791     1.168331866     0.157783815       H   1  noname   -0.037298
   16   H16       -3.521793328     0.487091466     0.697817354       H   1  noname    0.361984
   17   H17       -3.127376829    -0.006169799    -0.779619615       H   1  noname    0.370442


@<TRIPOS>BOND
    1      1      2    1
    2      2      3    1
    3      3      4    1
    4      4      5    1
    5      5      6    1
    6      1      7    1
    7      1      8    1
    8      1      9    1
    9      3     10    1
   10      3     11    1
   11      4     12    1
   12      4     13    1
   13      5     14    1
   14      5     15    1
   15      6     16    1
   16      6     17    1
#
#	File Created by: Spartan'20 Export
#

@<TRIPOS>MOLECULE
M0300
14 13
SMALL
USER_CHARGES


@<TRIPOS>ATOM
    1   C1         2.356940795     0.104433513    -0.237229856     C.3   1  noname   -0.228926
    2   O2         1.179494474     0.044338027     0.501289431     O.3   1  noname   -0.423793
    3   C3         0.016762083     0.055646556    -0.269499487     C.3   1  noname    0.165264
    4   C4        -1.177505565     0.008666446     0.665556169     C.3   1  noname    0.213543
    5   N5        -2.406534407    -0.019901679    -0.112412285     N.3   1  noname   -1.039830
    6   H6         3.182811881     0.090004964     0.460823437       H   1  noname    0.155362
    7   H7         2.411014312     1.016625352    -0.828596364       H   1  noname    0.110529
    8   H8         2.449556921    -0.747078837    -0.909097003       H   1  noname    0.104342
    9   H9        -0.035190325     0.951977386    -0.883288198       H   1  noname    0.053212
   10   H10        0.001405048    -0.802681676    -0.943392549       H   1  noname    0.056245
   11   H11       -1.174499168     0.905352874     1.273864755       H   1  noname    0.062805
   12   H12       -1.060608902    -0.837984473     1.341264367       H   1  noname    0.004517
   13   H13       -2.542267326    -0.920098912    -0.531131429       H   1  noname    0.377770
   14   H14       -3.201379820     0.150700458     0.471849012       H   1  noname    0.388959


@<TRIPOS>BOND
    1      1      2    1
    2      2      3    1
    3      3      4    1
    4      4      5    1
    5      1      6    1
    6      1      7    1
    7      1      8    1
    8      3      9    1
    9      3     10    1
   10      4     11    1
   11      4     12    1
   12      5     13    1
   13      5     14    1
#
#	File Created by: Spartan'20 Export
#

@<TRIPOS>MOLECULE
M0301
16 15
SMALL
USER_CHARGES


@<TRIPOS>ATOM
    1   C1         0.123410577    -0.000015151    -2.963412051     C.3   1  noname   -0.243151
    2   O2        -0.486043529    -0.000010852    -1.710973595     O.3   1  noname   -0.350096
    3   C3         0.406834735     0.000018678    -0.638794351     C.3   1  noname    0.017367
    4   C4        -0.406731876     0.000022035     0.638798353     C.3   1  noname    0.017359
    5   O5         0.486081108     0.000013378     1.711032896     O.3   1  noname   -0.350093
    6   C6        -0.123472853    -0.000012834     2.963420765     C.3   1  noname   -0.243147
    7   H7         0.742947074     0.883488413    -3.103048211       H   1  noname    0.115711
    8   H8        -0.660727821    -0.000011365    -3.707854365       H   1  noname    0.151458
    9   H9         0.742925778    -0.883527726    -3.103048763       H   1  noname    0.115712
   10   H10        1.047377188     0.879279376    -0.665465270       H   1  noname    0.096500
   11   H11        1.047401399    -0.879226498    -0.665436202       H   1  noname    0.096501
   12   H12       -1.047294138    -0.879226532     0.665411400       H   1  noname    0.096501
   13   H13       -1.047288038     0.879274373     0.665424660       H   1  noname    0.096501
   14   H14       -0.743007654     0.883494763     3.103029198       H   1  noname    0.115709
   15   H15        0.660593795    -0.000037666     3.707926604       H   1  noname    0.151458
   16   H16       -0.743005746    -0.883522392     3.102988933       H   1  noname    0.115709


@<TRIPOS>BOND
    1      1      2    1
    2      2      3    1
    3      3      4    1
    4      4      5    1
    5      5      6    1
    6      1      7    1
    7      1      8    1
    8      1      9    1
    9      3     10    1
   10      3     11    1
   11      4     12    1
   12      4     13    1
   13      6     14    1
   14      6     15    1
   15      6     16    1
#
#	File Created by: Spartan'20 Export
#

@<TRIPOS>MOLECULE
M0302
13 12
SMALL
USER_CHARGES


@<TRIPOS>ATOM
    1   C1         0.304628348     2.076508908    -0.048044480     C.3   1  noname   -0.193005
    2   O2        -0.411230479     1.266748558     0.843064203     O.3   1  noname   -0.374001
    3   C3        -0.669609343    -0.001380258     0.399868154     C.3   1  noname    0.218834
    4   O4         0.516901100    -0.708550960     0.259922924     O.3   1  noname   -0.255444
    5   C5         0.349607377    -2.008850432    -0.210563868     C.3   1  noname   -0.391727
    6   H6         0.348505540     3.062741928     0.389800539       H   1  noname    0.139715
    7   H7        -0.201402551     2.138888893    -1.008602579       H   1  noname    0.107081
    8   H8         1.309382518     1.705022759    -0.201077764       H   1  noname    0.120260
    9   H9        -1.194898459     0.021466724    -0.558328372       H   1  noname    0.068809
   10   H10       -1.306890369    -0.470666213     1.142176708       H   1  noname    0.086151
   11   H11       -0.111264941    -2.022001625    -1.196419168       H   1  noname    0.141066
   12   H12       -0.263595578    -2.601461024     0.465273733       H   1  noname    0.147091
   13   H13        1.329866838    -2.458467257    -0.277070030       H   1  noname    0.185170


@<TRIPOS>BOND
    1      1      2    1
    2      2      3    1
    3      3      4    1
    4      4      5    1
    5      1      6    1
    6      1      7    1
    7      1      8    1
    8      3      9    1
    9      3     10    1
   10      5     11    1
   11      5     12    1
   12      5     13    1
#
#	File Created by: Spartan'20 Export
#

@<TRIPOS>MOLECULE
M0303
12 11
SMALL
USER_CHARGES


@<TRIPOS>ATOM
    1   C1        -2.159183445     0.420333844     0.194502997     C.3   1  noname   -0.464855
    2   O2        -1.318275313     0.282216472    -0.941419691     O.3   1  noname   -0.162661
    3   S3        -0.080794596    -0.718445269    -0.816762239       S   1  noname    0.551282
    4   O4         0.579744743    -0.686073236    -2.088374295     O.2   1  noname   -0.448240
    5   O5         0.749771036     0.225691432     0.202222295     O.3   1  noname   -0.230441
    6   C6         2.091259335    -0.163675203     0.455396790     C.3   1  noname   -0.344669
    7   H7        -3.055921215     0.902615148    -0.157100043       H   1  noname    0.217985
    8   H8        -2.409827704    -0.547972053     0.610253364       H   1  noname    0.172761
    9   H9        -1.677441603     1.030974251     0.944191087       H   1  noname    0.189618
   10   H10        2.134874175    -1.181407359     0.828000216       H   1  noname    0.150647
   11   H11        2.684848160    -0.074509192    -0.442232621       H   1  noname    0.195065
   12   H12        2.460946426     0.510251166     1.211322141       H   1  noname    0.173509


@<TRIPOS>BOND
    1      1      2    1
    2      2      3    1
    3      3      4    2
    4      3      5    1
    5      5      6    1
    6      1      7    1
    7      1      8    1
    8      1      9    1
    9      6     10    1
   10      6     11    1
   11      6     12    1
#
#	File Created by: Spartan'20 Export
#

@<TRIPOS>MOLECULE
M0304
17 17
SMALL
USER_CHARGES


@<TRIPOS>ATOM
    1   C1         0.427743052    -0.000000632    -2.960627496     C.3   1  noname   -0.283811
    2   O2        -0.628237894    -0.000000479    -2.037063219     O.3   1  noname   -0.370369
    3   C3        -0.373200451    -0.000000090    -0.722086712     C.2   1  noname    0.623870
    4   C4         0.900254603     0.000001338    -0.168571385     C.2   1  noname   -0.412090
    5   C5         1.046468787     0.000001498     1.209241823     C.2   1  noname   -0.091774
    6   C6        -0.062490385     0.000001158     2.039397288     C.2   1  noname   -0.013198
    7   C7        -1.340024329    -0.000000545     1.475566075     C.2   1  noname   -0.042080
    8   C8        -1.493798492    -0.000000687     0.111237635     C.2   1  noname   -0.454615
    9   C9         0.100943916     0.000000825     3.471742652     C.1   1  noname    0.279337
   10   N10        0.229552961    -0.000001720     4.601326018     N.1   1  noname   -0.434152
   11   H11       -0.030325022    -0.000003065    -3.937525089       H   1  noname    0.181209
   12   H12        1.043627395    -0.885916123    -2.853783856       H   1  noname    0.139234
   13   H13        1.043625613     0.885916503    -2.853785389       H   1  noname    0.139234
   14   H14        1.775946408     0.000002011    -0.786665637       H   1  noname    0.190457
   15   H15        2.032000604     0.000002383     1.636869193       H   1  noname    0.174673
   16   H16       -2.203924823    -0.000000938     2.113947096       H   1  noname    0.165579
   17   H17       -2.468161944    -0.000001437    -0.339218997       H   1  noname    0.208497


@<TRIPOS>BOND
    1      1      2    1
    2      2      3    1
    3      3      4    2
    4      4      5    1
    5      5      6    2
    6      6      7    1
    7      7      8    2
    8      6      9    1
    9      9     10    3
   10      8      3    1
   11      1     11    1
   12      1     12    1
   13      1     13    1
   14      4     14    1
   15      5     15    1
   16      7     16    1
   17      8     17    1
#
#	File Created by: Spartan'20 Export
#

@<TRIPOS>MOLECULE
M0305
32 33
SMALL
USER_CHARGES


@<TRIPOS>ATOM
    1   C1         6.142069034     0.257641262    -0.617161196     C.3   1  noname   -0.244445
    2   O2         4.962114340    -0.253266385    -1.172310989     O.3   1  noname   -0.373144
    3   C3         3.804522857    -0.154541094    -0.497889066     C.2   1  noname    0.621641
    4   C4         3.668516499     0.445922113     0.747430091     C.2   1  noname   -0.428872
    5   C5         2.423943616     0.484040281     1.352291693     C.2   1  noname   -0.038136
    6   C6         1.298526437    -0.040398571     0.732535590     C.2   1  noname   -0.180479
    7   C7         1.454843850    -0.644928526    -0.515695247     C.2   1  noname    0.048156
    8   C8         2.688898457    -0.708146770    -1.122314211     C.2   1  noname   -0.506858
    9   C9        -0.000045724    -0.000201048     1.474183877     C.2   1  noname    0.570183
   10   O10       -0.000141305    -0.000208546     2.675215178     O.2   1  noname   -0.537549
   11   C11       -1.298549764     0.039995398     0.732354650     C.2   1  noname   -0.180928
   12   C12       -1.454696793     0.644589317    -0.515863567     C.2   1  noname    0.048483
   13   C13       -2.688606061     0.707726148    -1.122631749     C.2   1  noname   -0.507117
   14   C14       -3.804294232     0.154073128    -0.498289692     C.2   1  noname    0.622080
   15   C15       -3.668480376    -0.446446321     0.747031939     C.2   1  noname   -0.429570
   16   C16       -2.424032810    -0.484519908     1.352010632     C.2   1  noname   -0.037520
   17   O17       -4.961732866     0.252614781    -1.173032410     O.3   1  noname   -0.373226
   18   C18       -6.142247235    -0.256575125    -0.616867336     C.3   1  noname   -0.244730
   19   H19        6.922383267     0.057258563    -1.335968197       H   1  noname    0.164316
   20   H20        6.072330702     1.327876458    -0.454883787       H   1  noname    0.126123
   21   H21        6.382815602    -0.234273009     0.318634586       H   1  noname    0.131235
   22   H22        4.511527901     0.874520018     1.253050102       H   1  noname    0.186111
   23   H23        2.319279171     0.928638020     2.323731560       H   1  noname    0.158127
   24   H24        0.611243105    -1.090349306    -1.008666980       H   1  noname    0.111667
   25   H25        2.817091272    -1.183439964    -2.076578870       H   1  noname    0.208265
   26   H26       -0.611077707     1.090065311    -1.008689639       H   1  noname    0.111614
   27   H27       -2.816735864     1.183015772    -2.076916961       H   1  noname    0.208305
   28   H28       -4.511486949    -0.875214054     1.252417992       H   1  noname    0.186267
   29   H29       -2.319407954    -0.929208699     2.323396641       H   1  noname    0.158030
   30   H30       -6.073731893    -1.326963654    -0.453374113       H   1  noname    0.126253
   31   H31       -6.382368897     0.236775732     0.318571377       H   1  noname    0.131298
   32   H32       -6.922469680    -0.056071323    -1.335721899       H   1  noname    0.164420


@<TRIPOS>BOND
    1      1      2    1
    2      2      3    1
    3      3      4    2
    4      4      5    1
    5      5      6    2
    6      6      7    1
    7      7      8    2
    8      6      9    1
    9      9     10    2
   10      9     11    1
   11     11     12    2
   12     12     13    1
   13     13     14    2
   14     14     15    1
   15     15     16    2
   16     14     17    1
   17     17     18    1
   18      8      3    1
   19     16     11    1
   20      1     19    1
   21      1     20    1
   22      1     21    1
   23      4     22    1
   24      5     23    1
   25      7     24    1
   26      8     25    1
   27     12     26    1
   28     13     27    1
   29     15     28    1
   30     16     29    1
   31     18     30    1
   32     18     31    1
   33     18     32    1
#
#	File Created by: Spartan'20 Export
#

@<TRIPOS>MOLECULE
M0306
28 29
SMALL
USER_CHARGES


@<TRIPOS>ATOM
    1   C1         4.852062679     0.652489029    -0.993784331     C.3   1  noname   -0.248646
    2   O2         4.336680840     0.170357613     0.216038986     O.3   1  noname   -0.374381
    3   C3         3.022364883    -0.075141793     0.336652925     C.2   1  noname    0.616736
    4   C4         2.609528383    -0.573835107     1.575113467     C.2   1  noname   -0.472274
    5   C5         1.286134832    -0.861783936     1.793605265     C.2   1  noname    0.003696
    6   C6         0.325969267    -0.639498095     0.800195090     C.2   1  noname   -0.131684
    7   C7         0.750643067    -0.149778169    -0.423922909     C.2   1  noname   -0.048938
    8   C8         2.089281345     0.129737060    -0.667673550     C.2   1  noname   -0.436458
    9   C9        -1.089070398    -1.023305758     1.086881848     C.2   1  noname    0.494345
   10   O10       -1.328363772    -1.866382744     1.905572194     O.2   1  noname   -0.518795
   11   C11       -2.223555862    -0.363885338     0.355025561     C.2   1  noname    0.039123
   12   C12       -3.364339302    -1.120314434     0.100867519     C.2   1  noname   -0.180980
   13   C13       -4.455989023    -0.552022281    -0.529978263     C.2   1  noname   -0.128580
   14   C14       -4.429690293     0.787734913    -0.888796495     C.2   1  noname   -0.106023
   15   C15       -3.308806089     1.553830970    -0.617825133     C.2   1  noname   -0.165704
   16   C16       -2.205766774     0.978455497    -0.004765933     C.2   1  noname   -0.140097
   17   H17        4.425131641     1.616937355    -1.247529158       H   1  noname    0.126652
   18   H18        5.915967874     0.761519993    -0.843927413       H   1  noname    0.167362
   19   H19        4.674785608    -0.046054820    -1.804932857       H   1  noname    0.132117
   20   H20        3.349917295    -0.730267474     2.337004540       H   1  noname    0.205047
   21   H21        0.970398773    -1.263676625     2.737675478       H   1  noname    0.151597
   22   H22        0.044367298     0.004047470    -1.217704330       H   1  noname    0.127178
   23   H23        2.380025470     0.496950674    -1.632381023       H   1  noname    0.187709
   24   H24       -3.383573836    -2.150114827     0.404007846       H   1  noname    0.165065
   25   H25       -5.327724719    -1.147675913    -0.733841818       H   1  noname    0.135166
   26   H26       -5.281567628     1.232390427    -1.371757441       H   1  noname    0.134037
   27   H27       -3.290859065     2.596512701    -0.879970339       H   1  noname    0.142903
   28   H28       -1.343952494     1.582773610     0.210150276       H   1  noname    0.123829


@<TRIPOS>BOND
    1      1      2    1
    2      2      3    1
    3      3      4    2
    4      4      5    1
    5      5      6    2
    6      6      7    1
    7      7      8    2
    8      6      9    1
    9      9     10    2
   10      9     11    1
   11     11     12    2
   12     12     13    1
   13     13     14    2
   14     14     15    1
   15     15     16    2
   16      8      3    1
   17     16     11    1
   18      1     17    1
   19      1     18    1
   20      1     19    1
   21      4     20    1
   22      5     21    1
   23      7     22    1
   24      8     23    1
   25     12     24    1
   26     13     25    1
   27     14     26    1
   28     15     27    1
   29     16     28    1
#
#	File Created by: Spartan'20 Export
#

@<TRIPOS>MOLECULE
M0307
18 18
SMALL
USER_CHARGES


@<TRIPOS>ATOM
    1   C1         0.150423450    -0.000000844    -3.184019778     C.3   1  noname   -0.258407
    2   O2        -0.822297247     0.000002678    -2.174682636     O.3   1  noname   -0.361137
    3   C3        -0.455095951     0.000000595    -0.885450248     C.2   1  noname    0.596451
    4   C4         0.859899628     0.000001768    -0.444324017     C.2   1  noname   -0.371281
    5   C5         1.113969468     0.000001282     0.920429845     C.2   1  noname   -0.152816
    6   C6         0.085095986     0.000000015     1.844073476     C.2   1  noname   -0.075338
    7   C7        -1.235877571    -0.000001784     1.384221664     C.2   1  noname    0.023886
    8   C8        -1.505067057    -0.000001017     0.040219168     C.2   1  noname   -0.472687
    9   C9         0.379832165     0.000000907     3.289893511     C.2   1  noname    0.403676
   10   O10       -0.443619753    -0.000000837     4.151624812     O.2   1  noname   -0.488810
   11   H11        0.773779734    -0.885655836    -3.130335022       H   1  noname    0.129315
   12   H12       -0.388563269    -0.000000597    -4.118956282       H   1  noname    0.172307
   13   H13        0.773787114     0.885650084    -3.130335001       H   1  noname    0.129315
   14   H14        1.679713412     0.000003124    -1.135121263       H   1  noname    0.181256
   15   H15        2.136155223     0.000002663     1.259079978       H   1  noname    0.157695
   16   H16       -2.035049386    -0.000002264     2.101547715       H   1  noname    0.146260
   17   H17       -2.512415867    -0.000001267    -0.331680349       H   1  noname    0.203962
   18   H18        1.445329922     0.000001329     3.543814429       H   1  noname    0.036354


@<TRIPOS>BOND
    1      1      2    1
    2      2      3    1
    3      3      4    2
    4      4      5    1
    5      5      6    2
    6      6      7    1
    7      7      8    2
    8      6      9    1
    9      9     10    2
   10      8      3    1
   11      1     11    1
   12      1     12    1
   13      1     13    1
   14      4     14    1
   15      5     15    1
   16      7     16    1
   17      8     17    1
   18      9     18    1
#
#	File Created by: Spartan'20 Export
#

@<TRIPOS>MOLECULE
M0308
18 18
SMALL
USER_CHARGES


@<TRIPOS>ATOM
    1   C1         0.440748186     0.000012896    -3.146663159     C.3   1  noname   -0.271612
    2   O2        -0.619824680    -0.000032245    -2.226385425     O.3   1  noname   -0.372407
    3   C3        -0.373496414    -0.000015842    -0.913090251     C.2   1  noname    0.630444
    4   C4         0.899033028    -0.000026293    -0.352320932     C.2   1  noname   -0.410910
    5   C5         1.041258425    -0.000015890     1.024799257     C.2   1  noname   -0.029520
    6   C6        -0.080074663     0.000002858     1.827009474     C.2   1  noname   -0.180963
    7   C7        -1.357570155     0.000015170     1.278347945     C.2   1  noname    0.019435
    8   C8        -1.500393621     0.000001831    -0.086713619     C.2   1  noname   -0.457777
    9   N9         0.076131693     0.000007858     3.267932533       N   1  noname    0.883170
   10   O10       -0.915163649    -0.000059963     3.934702389       O   1  noname   -0.493006
   11   O11        1.186786748     0.000080683     3.709298503     O.2   1  noname   -0.493771
   12   H12        1.055254525    -0.886202804    -3.037162961       H   1  noname    0.138029
   13   H13       -0.014996652     0.000029925    -4.124393811       H   1  noname    0.180588
   14   H14        1.055228264     0.886242108    -3.037127430       H   1  noname    0.138029
   15   H15        1.777650635    -0.000047570    -0.965967190       H   1  noname    0.187840
   16   H16        2.015612161    -0.000027478     1.469947085       H   1  noname    0.166796
   17   H17       -2.214557871     0.000029333     1.921055870       H   1  noname    0.157402
   18   H18       -2.471625960     0.000005422    -0.543268277       H   1  noname    0.208233


@<TRIPOS>BOND
    1      1      2    1
    2      2      3    1
    3      3      4    2
    4      4      5    1
    5      5      6    2
    6      6      7    1
    7      7      8    2
    8      6      9    1
    9      9     10    1
   10      9     11    2
   11      8      3    1
   12      1     12    1
   13      1     13    1
   14      1     14    1
   15      4     15    1
   16      5     16    1
   17      7     17    1
   18      8     18    1
#
#	File Created by: Spartan'20 Export
#

@<TRIPOS>MOLECULE
M0309
18 18
SMALL
USER_CHARGES


@<TRIPOS>ATOM
    1   C1        -1.863665513    -0.000251027     2.040040838     C.3   1  noname   -0.335136
    2   O2        -0.519689096    -0.005019837     1.646605740     O.3   1  noname   -0.287168
    3   C3        -0.190077291    -0.001491336     0.355061547     C.2   1  noname    0.526197
    4   C4        -1.124856161    -0.001159159    -0.673146167     C.2   1  noname   -0.406142
    5   C5        -0.710117044     0.000177702    -1.996235297     C.2   1  noname   -0.021950
    6   C6         0.631798851     0.001073813    -2.325803111     C.2   1  noname   -0.234079
    7   C7         1.559242494     0.001071916    -1.299530240     C.2   1  noname   -0.102252
    8   C8         1.181257553    -0.000173970     0.036166544     C.2   1  noname   -0.230423
    9   C9         2.274838193    -0.000312947     1.040209999     C.2   1  noname    0.452665
   10   O10        2.177244734     0.010866690     2.224196307     O.2   1  noname   -0.484492
   11   H11       -2.382515030    -0.884546986     1.686407708       H   1  noname    0.146190
   12   H12       -2.376833809     0.887272326     1.686426506       H   1  noname    0.146494
   13   H13       -1.853857331    -0.000115534     3.118784637       H   1  noname    0.190126
   14   H14       -2.174313715    -0.002466134    -0.455574582       H   1  noname    0.184217
   15   H15       -1.454364934     0.000315827    -2.772807615       H   1  noname    0.137839
   16   H16        0.948143895     0.001998492    -3.352219818       H   1  noname    0.151826
   17   H17        2.609466771     0.002360802    -1.535394015       H   1  noname    0.143353
   18   H18        3.268297431    -0.009600639     0.576811021       H   1  noname    0.022734


@<TRIPOS>BOND
    1      1      2    1
    2      2      3    1
    3      3      4    2
    4      4      5    1
    5      5      6    2
    6      6      7    1
    7      7      8    2
    8      8      9    1
    9      9     10    2
   10      8      3    1
   11      1     11    1
   12      1     12    1
   13      1     13    1
   14      4     14    1
   15      5     15    1
   16      6     16    1
   17      7     17    1
   18      9     18    1
#
#	File Created by: Spartan'20 Export
#

@<TRIPOS>MOLECULE
M0310
20 20
SMALL
USER_CHARGES


@<TRIPOS>ATOM
    1   C1        -2.681245545    -0.000003188    -1.464652675     C.3   1  noname   -0.244407
    2   O2        -1.287972427     0.000006283    -1.371901251     O.3   1  noname   -0.324392
    3   C3        -0.705039334     0.000007200    -0.157176573     C.2   1  noname    0.290630
    4   C4        -1.382022832     0.000003534     1.041482000     C.2   1  noname   -0.277118
    5   C5        -0.685250511     0.000001556     2.251793809     C.2   1  noname   -0.181632
    6   C6         0.685382807     0.000002887     2.251860648     C.2   1  noname   -0.181619
    7   C7         1.382059242     0.000006365     1.041583984     C.2   1  noname   -0.277061
    8   C8         0.704978573     0.000008819    -0.157136200     C.2   1  noname    0.290522
    9   O9         1.287928292     0.000013118    -1.371886035     O.3   1  noname   -0.324385
   10   C10        2.681196167    -0.000004193    -1.464589199     C.3   1  noname   -0.244403
   11   H11       -3.111674469    -0.885020993    -1.006432282       H   1  noname    0.125575
   12   H12       -3.111694417     0.885003515    -1.006427578       H   1  noname    0.125575
   13   H13       -2.912214004    -0.000003428    -2.519512953       H   1  noname    0.160511
   14   H14       -2.454602526    -0.000000403     1.056510706       H   1  noname    0.169473
   15   H15       -1.234289066    -0.000001226     3.176033227       H   1  noname    0.155800
   16   H16        1.234382194     0.000001297     3.176107492       H   1  noname    0.155822
   17   H17        2.454645199     0.000006371     1.056552859       H   1  noname    0.169460
   18   H18        3.111618397    -0.885031762    -1.006385754       H   1  noname    0.125572
   19   H19        3.111643332     0.885009866    -1.006381199       H   1  noname    0.125573
   20   H20        2.912170928    -0.000005620    -2.519443026       H   1  noname    0.160502


@<TRIPOS>BOND
    1      1      2    1
    2      2      3    1
    3      3      4    2
    4      4      5    1
    5      5      6    2
    6      6      7    1
    7      7      8    2
    8      8      9    1
    9      9     10    1
   10      8      3    1
   11      1     11    1
   12      1     12    1
   13      1     13    1
   14      4     14    1
   15      5     15    1
   16      6     16    1
   17      7     17    1
   18     10     18    1
   19     10     19    1
   20     10     20    1
#
#	File Created by: Spartan'20 Export
#

@<TRIPOS>MOLECULE
M0311
15 15
SMALL
USER_CHARGES


@<TRIPOS>ATOM
    1   C1         0.309723722     0.000000885    -2.651942262     C.3   1  noname   -0.286776
    2   O2        -0.693921455    -0.000003763    -1.661761349     O.3   1  noname   -0.446982
    3   C3        -0.325518335    -0.000000505    -0.381076021     C.2   1  noname    1.056550
    4   C4        -1.356934546     0.000000092     0.567868400     C.2   1  noname   -0.775914
    5   C5        -1.001333730     0.000000447     1.889847538     C.2   1  noname    0.324842
    6   C6         0.351808485    -0.000000309     2.239522715     C.2   1  noname   -0.591796
    7   C7         1.269281286    -0.000001522     1.220277833     C.2   1  noname    0.385821
    8   N8         0.942621183    -0.000001597    -0.071189150     N.2   1  noname   -0.736510
    9   H9         0.932834238    -0.880423620    -2.572663217       H   1  noname    0.141281
   10   H10       -0.214326041    -0.000002376    -3.596072662       H   1  noname    0.174781
   11   H11        0.932825903     0.880432364    -2.572664384       H   1  noname    0.141281
   12   H12       -2.378554539     0.000000055     0.240540374       H   1  noname    0.246323
   13   H13       -1.760106810     0.000001673     2.652262546       H   1  noname    0.089926
   14   H14        0.667448716     0.000000502     3.265760958       H   1  noname    0.202143
   15   H15        2.324151923    -0.000002327     1.431288681       H   1  noname    0.075030


@<TRIPOS>BOND
    1      1      2    1
    2      2      3    1
    3      3      4    2
    4      4      5    1
    5      5      6    2
    6      6      7    1
    7      7      8    2
    8      8      3    1
    9      1      9    1
   10      1     10    1
   11      1     11    1
   12      4     12    1
   13      5     13    1
   14      6     14    1
   15      7     15    1
#
#	File Created by: Spartan'20 Export
#

@<TRIPOS>MOLECULE
M0312
16 16
SMALL
USER_CHARGES


@<TRIPOS>ATOM
    1   C1        -0.328822930     0.000017296     2.696484154     C.3   1  noname   -0.264497
    2   O2         0.695012228     0.000149535     1.735873782     O.3   1  noname   -0.359290
    3   C3         0.383619895    -0.000158500     0.435578179     C.2   1  noname    0.595037
    4   C4        -0.899391068    -0.000099554    -0.083695109     C.2   1  noname   -0.427882
    5   C5        -1.073995150    -0.000038068    -1.454629259     C.2   1  noname   -0.075641
    6   N6        -0.051272414    -0.000166264    -2.302544943       N   1  noname    0.427830
    7   O7        -0.246808485     0.000868858    -3.577994955       O   1  noname   -0.665178
    8   C8         1.197524966    -0.000291274    -1.810621403     C.2   1  noname   -0.018009
    9   C9         1.446295528    -0.000352134    -0.465889397     C.2   1  noname   -0.467682
   10   H10       -0.946975542    -0.886361682     2.609567304       H   1  noname    0.136259
   11   H11        0.162381059     0.000294084     3.656840444       H   1  noname    0.177503
   12   H12       -0.947523038     0.886123220     2.609448662       H   1  noname    0.136259
   13   H13       -1.772205638     0.000126220     0.537560899       H   1  noname    0.208087
   14   H14       -2.035780455     0.000313670    -1.923644570       H   1  noname    0.191177
   15   H15        1.962090344    -0.000118973    -2.558891176       H   1  noname    0.180139
   16   H16        2.455850699    -0.000306435    -0.103442610       H   1  noname    0.225887


@<TRIPOS>BOND
    1      1      2    1
    2      2      3    1
    3      3      4    2
    4      4      5    1
    5      5      6    2
    6      6      7    1
    7      6      8    1
    8      8      9    2
    9      9      3    1
   10      1     10    1
   11      1     11    1
   12      1     12    1
   13      4     13    1
   14      5     14    1
   15      8     15    1
   16      9     16    1
#
#	File Created by: Spartan'20 Export
#

@<TRIPOS>MOLECULE
M0313
14 13
SMALL
USER_CHARGES


@<TRIPOS>ATOM
    1   C1        -1.663728467     0.000002097    -0.121531033     C.3   1  noname   -0.892605
    2   P2        -0.000109895    -0.000002295     0.613588245       P   1  noname    1.401883
    3   O3        -0.000257341    -0.000011305     2.087289421     O.2   1  noname   -0.794858
    4   C4         0.831907729    -1.440777444    -0.121361808     C.3   1  noname   -0.879133
    5   C5         0.831899920     1.440774966    -0.121362727     C.3   1  noname   -0.879137
    6   H6        -2.206590139     0.877026386     0.213477990       H   1  noname    0.234084
    7   H7        -1.631055960    -0.000002140    -1.206180291       H   1  noname    0.220249
    8   H8        -2.206607627    -0.877009313     0.213484379       H   1  noname    0.234085
    9   H9         0.815421348    -1.412578629    -1.206005964       H   1  noname    0.217810
   10   H10        0.343949581    -2.349423705     0.213808787       H   1  noname    0.230321
   11   H11        1.862916027    -1.472259639     0.213502099       H   1  noname    0.229584
   12   H12        0.815393600     1.412580259    -1.206006439       H   1  noname    0.217811
   13   H13        1.862915126     1.472261497     0.213479433       H   1  noname    0.229585
   14   H14        0.343946098     2.349419265     0.213817910       H   1  noname    0.230322


@<TRIPOS>BOND
    1      1      2    1
    2      2      3    2
    3      2      4    1
    4      2      5    1
    5      1      6    1
    6      1      7    1
    7      1      8    1
    8      4      9    1
    9      4     10    1
   10      4     11    1
   11      5     12    1
   12      5     13    1
   13      5     14    1
#
#	File Created by: Spartan'20 Export
#

@<TRIPOS>MOLECULE
M0314
11 10
SMALL
USER_CHARGES


@<TRIPOS>ATOM
    1   C1         1.401129861     0.000014049    -0.320472734     C.3   1  noname   -0.786498
    2   S2         0.000000247     0.000006774     0.767840327       S   1  noname    1.441997
    3   O3        -0.000017169     1.245007263     1.484732867     O.2   1  noname   -0.655739
    4   O4         0.000012560    -1.244993294     1.484736372     O.2   1  noname   -0.655740
    5   C5        -1.401127651    -0.000013032    -0.320473609     C.3   1  noname   -0.786498
    6   H6         2.279006405    -0.000061358     0.312657185       H   1  noname    0.253469
    7   H7         1.390800042    -0.892216022    -0.930466573       H   1  noname    0.233885
    8   H8         1.390881927     0.892314668    -0.930372549       H   1  noname    0.233886
    9   H9        -1.390829184     0.892224247    -0.930458044       H   1  noname    0.233886
   10   H10       -2.279002602     0.000023547     0.312659613       H   1  noname    0.253468
   11   H11       -1.390854436    -0.892306842    -0.930382855       H   1  noname    0.233884


@<TRIPOS>BOND
    1      1      2    1
    2      2      3    2
    3      2      4    2
    4      2      5    1
    5      1      6    1
    6      1      7    1
    7      1      8    1
    8      5      9    1
    9      5     10    1
   10      5     11    1
#
#	File Created by: Spartan'20 Export
#

@<TRIPOS>MOLECULE
M0315
10 9
SMALL
USER_CHARGES


@<TRIPOS>ATOM
    1   C1        -0.057473354    -1.354029521     0.209433105     C.3   1  noname   -0.571286
    2   S2        -0.528798732    -0.000000570    -0.874425693       S   1  noname    0.432588
    3   O3         0.439693491    -0.000006012    -2.000783947     O.2   1  noname   -0.521917
    4   C4        -0.057479745     1.354028659     0.209438514     C.3   1  noname   -0.571281
    5   H5         0.995671101    -1.278362507     0.448844722       H   1  noname    0.217527
    6   H6        -0.233965756    -2.274799218    -0.330404273       H   1  noname    0.214870
    7   H7        -0.659659676    -1.339202717     1.109718524       H   1  noname    0.183554
    8   H8        -0.659694890     1.339212963     1.109707919       H   1  noname    0.183552
    9   H9        -0.233952347     2.274799587    -0.330410883       H   1  noname    0.214868
   10   H10        0.995659907     1.278359334     0.448882011       H   1  noname    0.217525


@<TRIPOS>BOND
    1      1      2    1
    2      2      3    2
    3      2      4    1
    4      1      5    1
    5      1      6    1
    6      1      7    1
    7      4      8    1
    8      4      9    1
    9      4     10    1
#
#	File Created by: Spartan'20 Export
#

@<TRIPOS>MOLECULE
M0316
17 17
SMALL
USER_CHARGES


@<TRIPOS>ATOM
    1   C1         2.654770776     0.387528598    -0.411017449     C.3   1  noname   -0.491579
    2   S2         1.851876284    -0.376008801     1.007309257       S   1  noname    0.295110
    3   O3         2.154905489    -1.827866451     0.912197724     O.2   1  noname   -0.511710
    4   C4         0.151756200    -0.155860459     0.483997142     C.2   1  noname    0.266590
    5   C5        -0.525405279    -1.229568504    -0.067743267     C.2   1  noname   -0.163019
    6   C6        -1.847099499    -1.069445042    -0.455452265     C.2   1  noname   -0.144855
    7   C7        -2.479875949     0.151001777    -0.286369448     C.2   1  noname   -0.160141
    8   C8        -1.797397171     1.218158325     0.280148620     C.2   1  noname   -0.043630
    9   C9        -0.480013088     1.064198158     0.675331008     C.2   1  noname   -0.350790
   10   H10        2.369397726    -0.142670695    -1.309531431       H   1  noname    0.180967
   11   H11        3.722943161     0.301051094    -0.261274128       H   1  noname    0.212606
   12   H12        2.376213574     1.430717031    -0.478500878       H   1  noname    0.158464
   13   H13       -0.018321739    -2.169719489    -0.174157462       H   1  noname    0.158402
   14   H14       -2.381142127    -1.898019873    -0.884618355       H   1  noname    0.148040
   15   H15       -3.505574202     0.270292564    -0.586086932       H   1  noname    0.143028
   16   H16       -2.292531904     2.161813281     0.422190561       H   1  noname    0.128529
   17   H17        0.045497748     1.884398487     1.133577304       H   1  noname    0.173986


@<TRIPOS>BOND
    1      1      2    1
    2      2      3    2
    3      2      4    1
    4      4      5    2
    5      5      6    1
    6      6      7    2
    7      7      8    1
    8      8      9    2
    9      9      4    1
   10      1     10    1
   11      1     11    1
   12      1     12    1
   13      5     13    1
   14      6     14    1
   15      7     15    1
   16      8     16    1
   17      9     17    1
#
#	File Created by: Spartan'20 Export
#

@<TRIPOS>MOLECULE
M0317
9 8
SMALL
USER_CHARGES


@<TRIPOS>ATOM
    1   C1         1.386125768     0.000018296    -0.019080535     C.3   1  noname   -0.453588
    2   S2         0.000000211     0.000002137    -1.181137929     S.3   1  noname   -0.122773
    3   C3        -1.386125224    -0.000018331    -0.019080352     C.3   1  noname   -0.453587
    4   H4         1.372483702    -0.884457070     0.605816553       H   1  noname    0.165645
    5   H5         1.372604989     0.884696452     0.605555213       H   1  noname    0.165628
    6   H6         2.298350883    -0.000105210    -0.601722199       H   1  noname    0.183701
    7   H7        -2.298350405     0.000101321    -0.601721954       H   1  noname    0.183700
    8   H8        -1.372485331     0.884458608     0.605815778       H   1  noname    0.165645
    9   H9        -1.372604593    -0.884696204     0.605555426       H   1  noname    0.165628


@<TRIPOS>BOND
    1      1      2    1
    2      2      3    1
    3      1      4    1
    4      1      5    1
    5      1      6    1
    6      3      7    1
    7      3      8    1
    8      3      9    1
#
#	File Created by: Spartan'20 Export
#

@<TRIPOS>MOLECULE
M0318
7 6
SMALL
USER_CHARGES


@<TRIPOS>ATOM
    1   C1         0.063755729     0.000001612    -0.969450036     C.3   1  noname   -0.462620
    2   S2        -1.205461958     0.000002641     0.336617866     S.3   1  noname   -0.027966
    3   C3        -0.193323135    -0.000001942     1.710670711     C.1   1  noname    0.342312
    4   N4         0.465063646    -0.000004986     2.638206879     N.1   1  noname   -0.425648
    5   H5        -0.479635237    -0.000004784    -1.905026567       H   1  noname    0.218159
    6   H6         0.674802870    -0.888087170    -0.905505212       H   1  noname    0.177881
    7   H7         0.674798085     0.888094629    -0.905513642       H   1  noname    0.177881


@<TRIPOS>BOND
    1      1      2    1
    2      2      3    1
    3      3      4    3
    4      1      5    1
    5      1      6    1
    6      1      7    1
#
#	File Created by: Spartan'20 Export
#

@<TRIPOS>MOLECULE
M0319
10 9
SMALL
USER_CHARGES


@<TRIPOS>ATOM
    1   C1         1.844064763    -0.397094986     0.106575069     C.3   1  noname   -0.505038
    2   S2         0.904750165     0.484333136    -1.172769224     S.3   1  noname   -0.048582
    3   S3        -0.904778637    -0.484441156    -1.172695879     S.3   1  noname   -0.048588
    4   C4        -1.844062990     0.397108102     0.106592740     C.3   1  noname   -0.505021
    5   H5         1.924500841    -1.447567752    -0.134051528       H   1  noname    0.170081
    6   H6         2.832914687     0.045197759     0.118738953       H   1  noname    0.199211
    7   H7         1.392608496    -0.275430659     1.081445565       H   1  noname    0.184331
    8   H8        -1.924319913     1.447620482    -0.134019385       H   1  noname    0.170078
    9   H9        -1.392673355     0.275315861     1.081511676       H   1  noname    0.184322
   10   H10       -2.833004058    -0.045040786     0.118672011       H   1  noname    0.199207


@<TRIPOS>BOND
    1      1      2    1
    2      2      3    1
    3      3      4    1
    4      1      5    1
    5      1      6    1
    6      1      7    1
    7      4      8    1
    8      4      9    1
    9      4     10    1
#
#	File Created by: Spartan'20 Export
#

@<TRIPOS>MOLECULE
M0320
27 28
SMALL
USER_CHARGES


@<TRIPOS>ATOM
    1   C1         0.785379404     2.047840726     0.606412172     C.3   1  noname   -0.876163
    2   C2        -0.085459958     0.842085615     0.302737205     C.3   1  noname    0.379266
    3   C3        -1.098468159     1.065881521    -0.864761576     C.3   1  noname   -0.151529
    4   C4        -1.499606583    -0.365670188    -1.309685054     C.3   1  noname   -0.465220
    5   C5        -0.730851190    -1.252447216    -0.313197335     C.3   1  noname    0.187636
    6   C6         0.610157453    -0.494196140    -0.129416865     C.3   1  noname    0.749554
    7   C7         1.443811776    -0.388570559    -1.414347722     C.3   1  noname   -0.895504
    8   C8         1.526709546    -1.095167298     0.949080692     C.3   1  noname   -0.817411
    9   C9        -1.404513595    -1.054556139     1.053413738     C.3   1  noname   -0.651736
   10   C10       -0.972207946     0.352076480     1.437722175     C.2   1  noname    0.157830
   11   S11       -1.411503683     1.140318746     2.776746786     S.2   1  noname   -0.278571
   12   H12        1.455656209     1.856465750     1.436803781       H   1  noname    0.204819
   13   H13        1.380365071     2.312026198    -0.262190352       H   1  noname    0.211903
   14   H14        0.176263213     2.903986026     0.871544423       H   1  noname    0.190019
   15   H15       -1.944130838     1.661568805    -0.542164166       H   1  noname    0.096130
   16   H16       -0.613897471     1.616090435    -1.662542551       H   1  noname    0.080168
   17   H17       -1.207410352    -0.561744152    -2.333897796       H   1  noname    0.120699
   18   H18       -2.569111420    -0.532710233    -1.250120261       H   1  noname    0.157481
   19   H19       -0.642280727    -2.290466862    -0.612415732       H   1  noname    0.014938
   20   H20        0.919217661     0.066826922    -2.242820107       H   1  noname    0.210171
   21   H21        1.755009496    -1.380149271    -1.730927994       H   1  noname    0.188873
   22   H22        2.344027930     0.191308514    -1.239807224       H   1  noname    0.208458
   23   H23        1.079290354    -1.133355927     1.933647428       H   1  noname    0.196673
   24   H24        1.811954814    -2.106803148     0.676241793       H   1  noname    0.171603
   25   H25        2.438620106    -0.514763891     1.036914308       H   1  noname    0.197309
   26   H26       -1.061700349    -1.756342018     1.804163448       H   1  noname    0.193166
   27   H27       -2.485320762    -1.129532697     1.022866787       H   1  noname    0.219438


@<TRIPOS>BOND
    1      2      1    1
    2      2      3    1
    3      3      4    1
    4      4      5    1
    5      5      6    1
    6      6      7    1
    7      6      8    1
    8      5      9    1
    9      9     10    1
   10     10     11    2
   11      6      2    1
   12     10      2    1
   13      1     12    1
   14      1     13    1
   15      1     14    1
   16      3     15    1
   17      3     16    1
   18      4     17    1
   19      4     18    1
   20      5     19    1
   21      7     20    1
   22      7     21    1
   23      7     22    1
   24      8     23    1
   25      8     24    1
   26      8     25    1
   27      9     26    1
   28      9     27    1
#
#	File Created by: Spartan'20 Export
#

@<TRIPOS>MOLECULE
M0321
16 15
SMALL
USER_CHARGES


@<TRIPOS>ATOM
    1   C1        -1.030512524     0.000010393    -1.277801639     C.3   1  noname   -0.637482
    2   N2        -0.180525727    -0.000002722    -0.067119790     N.4   1  noname    0.761285
    3   C3         0.667619944    -1.218866770    -0.056827945     C.3   1  noname   -0.652177
    4   C4         0.667623452     1.218857274    -0.056814397     C.3   1  noname   -0.652163
    5   N5        -1.142015708    -0.000017696     1.026974542    N.ar   1  noname   -0.792618
    6   C6        -0.494358377    -0.000027031     2.181322206     C.1   1  noname    0.657805
    7   N7         0.060917707     0.000031794     3.187004969     N.1   1  noname   -0.669730
    8   H8        -0.407231248     0.000007915    -2.162028205       H   1  noname    0.198145
    9   H9        -1.653499458    -0.878671909    -1.246016230       H   1  noname    0.233864
   10   H10       -1.653485132     0.878708393    -1.246010910       H   1  noname    0.233863
   11   H11        0.012544033    -2.075265951    -0.063002300       H   1  noname    0.228832
   12   H12        1.256601723    -1.222513733     0.846586898       H   1  noname    0.225988
   13   H13        1.313573186    -1.224712785    -0.924958067       H   1  noname    0.204787
   14   H14        0.012536169     2.075275016    -0.063119697       H   1  noname    0.228830
   15   H15        1.256514476     1.222557113     0.846703115       H   1  noname    0.225989
   16   H16        1.313697484     1.224630698    -0.924892549       H   1  noname    0.204780


@<TRIPOS>BOND
    1      1      2    1
    2      2      3    1
    3      2      4    1
    4      2      5    1
    5      5      6    1
    6      6      7    3
    7      1      8    1
    8      1      9    1
    9      1     10    1
   10      3     11    1
   11      3     12    1
   12      3     13    1
   13      4     14    1
   14      4     15    1
   15      4     16    1
#
#	File Created by: Spartan'20 Export
#

@<TRIPOS>MOLECULE
M0322
14 13
SMALL
USER_CHARGES


@<TRIPOS>ATOM
    1   C1        -1.397980768    -0.000000050    -0.106420131     C.3   1  noname   -0.618124
    2   N2        -0.000009464    -0.000000072     0.362265322     N.4   1  noname    0.756454
    3   C3         0.698994604     1.210683417    -0.106343765     C.3   1  noname   -0.640574
    4   C4         0.698994831    -1.210683263    -0.106345451     C.3   1  noname   -0.640574
    5   O5        -0.000096984    -0.000001578     1.728628781       O   1  noname   -0.719170
    6   H6        -1.452757262    -0.000000622    -1.189569198       H   1  noname    0.180844
    7   H7        -1.874095518     0.878211485     0.299407662       H   1  noname    0.214638
    8   H8        -1.874094466    -0.878210931     0.299409424       H   1  noname    0.214638
    9   H9         0.176606698     2.062124117     0.299623747       H   1  noname    0.219903
   10   H10        0.726272720     1.258225457    -1.189497440       H   1  noname    0.185033
   11   H11        1.697642946     1.183799323     0.299359780       H   1  noname    0.220998
   12   H12        0.726269744    -1.258226704    -1.189499169       H   1  noname    0.185033
   13   H13        0.176609094    -2.062123883     0.299625076       H   1  noname    0.219903
   14   H14        1.697643823    -1.183796698     0.299355362       H   1  noname    0.220998


@<TRIPOS>BOND
    1      1      2    1
    2      2      3    1
    3      2      4    1
    4      2      5    1
    5      1      6    1
    6      1      7    1
    7      1      8    1
    8      3      9    1
    9      3     10    1
   10      3     11    1
   11      4     12    1
   12      4     13    1
   13      4     14    1
#
#	File Created by: Spartan'20 Export
#

@<TRIPOS>MOLECULE
M0323
10 9
SMALL
USER_CHARGES


@<TRIPOS>ATOM
    1   C1        -1.441222773    -0.152433540    -0.151538669     C.3   1  noname   -0.518906
    2   Se2        0.078273421     0.985591269    -0.537859203      Se   1  noname    0.437523
    3   O3         0.076655396     2.084205802     0.671804353     O.2   1  noname   -0.534877
    4   C4         1.425176000    -0.303110926    -0.010768626     C.3   1  noname   -0.506087
    5   H5        -1.403357511    -0.437311741     0.891002214       H   1  noname    0.198736
    6   H6        -1.427919626    -1.025802740    -0.791820560       H   1  noname    0.165327
    7   H7        -2.337165372     0.424026975    -0.335655677       H   1  noname    0.202070
    8   H8         1.382194454    -1.174394815    -0.652361535       H   1  noname    0.160457
    9   H9         2.390478663     0.174631086    -0.105137388       H   1  noname    0.199680
   10   H10        1.256887349    -0.575401369     1.022335091       H   1  noname    0.196077


@<TRIPOS>BOND
    1      1      2    1
    2      2      3    2
    3      2      4    1
    4      1      5    1
    5      1      6    1
    6      1      7    1
    7      4      8    1
    8      4      9    1
    9      4     10    1
#
#	File Created by: Spartan'20 Export
#

@<TRIPOS>MOLECULE
M0324
15 14
SMALL
USER_CHARGES


@<TRIPOS>ATOM
    1   C1        -1.800660391     0.000001432    -0.365698657     C.3   1  noname   -0.914622
    2   Si2        0.001274561    -0.000051397     0.174973173      Si   1  noname    1.231221
    3   C3         0.899994533     1.559504657    -0.365280526     C.3   1  noname   -0.923094
    4   C4         0.899998872    -1.559495619    -0.365300017     C.3   1  noname   -0.923105
    5   C5         0.000065714     0.000007312     2.060116766     C.1   1  noname   -0.040071
    6   N6        -0.000273477     0.000064864     3.198833648     N.1   1  noname   -0.342421
    7   H7        -2.324799288     0.877364219     0.001908456       H   1  noname    0.210450
    8   H8        -1.875087105    -0.000046299    -1.450439678       H   1  noname    0.212412
    9   H9        -2.324866782    -0.877291110     0.001987009       H   1  noname    0.210444
   10   H10        0.937056247     1.626353745    -1.449979283       H   1  noname    0.214445
   11   H11        0.402835452     2.452016538     0.003312433       H   1  noname    0.212424
   12   H12        1.922233774     1.575831504     0.001182036       H   1  noname    0.212518
   13   H13        0.937105620    -1.626347530    -1.449999888       H   1  noname    0.214451
   14   H14        0.402883410    -2.452058003     0.003228200       H   1  noname    0.212425
   15   H15        1.922238862    -1.575854313     0.001156327       H   1  noname    0.212523


@<TRIPOS>BOND
    1      1      2    1
    2      2      3    1
    3      2      4    1
    4      2      5    1
    5      5      6    3
    6      1      7    1
    7      1      8    1
    8      1      9    1
    9      3     10    1
   10      3     11    1
   11      3     12    1
   12      4     13    1
   13      4     14    1
   14      4     15    1
#
#	File Created by: Spartan'20 Export
#

@<TRIPOS>MOLECULE
M0325
28 27
SMALL
USER_CHARGES


@<TRIPOS>ATOM
    1   C1         0.027672152    -2.033689183     1.911444472     C.3   1  noname   -0.977305
    2   Si2       -0.165776115    -1.602833345     0.080358731      Si   1  noname    1.511782
    3   C3        -1.386176568    -2.815423170    -0.701449376     C.3   1  noname   -0.957389
    4   C4         1.523168054    -1.764561329    -0.752876192     C.3   1  noname   -0.921716
    5   N5        -0.807945305     0.001295492    -0.150373265     N.3   1  noname   -1.334976
    6   Si6       -0.118581905     1.602237429    -0.132701700      Si   1  noname    1.522735
    7   C7        -1.548602359     2.823017209     0.062276954     C.3   1  noname   -0.961536
    8   C8         0.804049136     1.996854485    -1.735788533     C.3   1  noname   -0.995893
    9   C9         1.086713156     1.792660287     1.310283065     C.3   1  noname   -0.937700
   10   H10        0.395339392    -3.049288036     2.044207647       H   1  noname    0.197877
   11   H11       -0.921988575    -1.957930047     2.435808378       H   1  noname    0.201738
   12   H12        0.726818242    -1.367246185     2.410338341       H   1  noname    0.213681
   13   H13       -1.049659279    -3.842880173    -0.584555651       H   1  noname    0.202311
   14   H14       -1.507132817    -2.629702447    -1.765498684       H   1  noname    0.199342
   15   H15       -2.369901259    -2.747299508    -0.241979507       H   1  noname    0.201384
   16   H16        1.456206531    -1.581585416    -1.821914591       H   1  noname    0.195426
   17   H17        2.252867827    -1.068731556    -0.346223506       H   1  noname    0.197077
   18   H18        1.926172785    -2.765162101    -0.613952951       H   1  noname    0.186638
   19   H19       -1.793457044     0.004168443    -0.334290259       H   1  noname    0.434791
   20   H20       -2.261853175     2.740383142    -0.755447447       H   1  noname    0.202680
   21   H21       -1.189954244     3.849645302     0.071296072       H   1  noname    0.203397
   22   H22       -2.091029871     2.657602331     0.989936493       H   1  noname    0.199937
   23   H23        1.190689797     3.014149229    -1.730331591       H   1  noname    0.202202
   24   H24        1.648506602     1.329438002    -1.888949376       H   1  noname    0.218577
   25   H25        0.151947976     1.898298856    -2.600515953       H   1  noname    0.205932
   26   H26        1.923360601     1.101355488     1.243830711       H   1  noname    0.199854
   27   H27        0.593407936     1.618728778     2.262962697       H   1  noname    0.197815
   28   H28        1.505138327     2.796498024     1.334105023       H   1  noname    0.191337


@<TRIPOS>BOND
    1      1      2    1
    2      2      3    1
    3      2      4    1
    4      2      5    1
    5      5      6    1
    6      6      7    1
    7      6      8    1
    8      6      9    1
    9      1     10    1
   10      1     11    1
   11      1     12    1
   12      3     13    1
   13      3     14    1
   14      3     15    1
   15      4     16    1
   16      4     17    1
   17      4     18    1
   18      5     19    1
   19      7     20    1
   20      7     21    1
   21      7     22    1
   22      8     23    1
   23      8     24    1
   24      8     25    1
   25      9     26    1
   26      9     27    1
   27      9     28    1
#
#	File Created by: Spartan'20 Export
#

@<TRIPOS>MOLECULE
M0326
27 26
SMALL
USER_CHARGES


@<TRIPOS>ATOM
    1   C1         2.174699580     1.571747625    -0.860415246     C.3   1  noname   -0.948704
    2   Si2        1.631374335     0.008148744     0.039774038      Si   1  noname    1.446890
    3   C3         2.185236650    -1.514429816    -0.925008140     C.3   1  noname   -0.955249
    4   C4         2.363321572    -0.027111877     1.775538873     C.3   1  noname   -0.961010
    5   O5        -0.000007784    -0.000176471     0.162992799     O.3   1  noname   -0.843924
    6   Si6       -1.631393765    -0.008260717     0.039786649      Si   1  noname    1.446877
    7   C7        -2.185023495     1.514453085    -0.925028739     C.3   1  noname   -0.955225
    8   C8        -2.363335595     0.027147767     1.775533241     C.3   1  noname   -0.961003
    9   C9        -2.174918333    -1.571754899    -0.860422002     C.3   1  noname   -0.948729
   10   H10        3.256982702     1.619970105    -0.956944481       H   1  noname    0.200975
   11   H11        1.755550654     1.619088843    -1.862554863       H   1  noname    0.202201
   12   H12        1.853886362     2.465104403    -0.330472732       H   1  noname    0.204412
   13   H13        1.868238391    -2.430670715    -0.433332324       H   1  noname    0.206680
   14   H14        3.267997149    -1.551865580    -1.020786875       H   1  noname    0.202292
   15   H15        1.768081264    -1.521165167    -1.928987632       H   1  noname    0.203393
   16   H16        3.450752993    -0.025375421     1.749833990       H   1  noname    0.204770
   17   H17        2.046879481     0.837411746     2.353470318       H   1  noname    0.207719
   18   H18        2.049385259    -0.915558152     2.318421201       H   1  noname    0.207592
   19   H19       -3.267753903     1.551961386    -1.020928947       H   1  noname    0.202287
   20   H20       -1.868001049     2.430609826    -0.433247418       H   1  noname    0.206671
   21   H21       -1.767727864     1.521178323    -1.928932641       H   1  noname    0.203390
   22   H22       -2.047046747    -0.837395932     2.353538306       H   1  noname    0.207717
   23   H23       -3.450753571     0.025561703     1.749843754       H   1  noname    0.204772
   24   H24       -2.049256845     0.915551258     2.318339916       H   1  noname    0.207594
   25   H25       -1.755792159    -1.619122916    -1.862572836       H   1  noname    0.202210
   26   H26       -3.257208200    -1.619893818    -0.956933082       H   1  noname    0.200983
   27   H27       -1.854167082    -2.465153334    -0.330505127       H   1  noname    0.204418


@<TRIPOS>BOND
    1      1      2    1
    2      2      3    1
    3      2      4    1
    4      2      5    1
    5      5      6    1
    6      6      7    1
    7      6      8    1
    8      6      9    1
    9      1     10    1
   10      1     11    1
   11      1     12    1
   12      3     13    1
   13      3     14    1
   14      3     15    1
   15      4     16    1
   16      4     17    1
   17      4     18    1
   18      7     19    1
   19      7     20    1
   20      7     21    1
   21      8     22    1
   22      8     23    1
   23      8     24    1
   24      9     25    1
   25      9     26    1
   26      9     27    1
#
#	File Created by: Spartan'20 Export
#

@<TRIPOS>MOLECULE
M0327
30 30
SMALL
USER_CHARGES


@<TRIPOS>ATOM
    1   C1        -2.914305265    -0.000009527     0.090280679     C.3   1  noname   -0.439321
    2   C2        -1.396883257     0.000019366     0.011190318     C.2   1  noname   -0.015549
    3   C3        -0.698386120    -1.209655463    -0.011504172     C.2   1  noname    0.047634
    4   C4         0.698452309    -1.209642226     0.011517914     C.2   1  noname    0.047456
    5   C5         1.396921312     0.000023114    -0.011233048     C.2   1  noname   -0.015425
    6   C6         0.698426725     1.209690599     0.011516986     C.2   1  noname    0.047405
    7   C7        -0.698394474     1.209691756    -0.011517920     C.2   1  noname    0.047582
    8   C8        -1.456972421     2.523899098    -0.090850640     C.3   1  noname   -0.417307
    9   C9         1.456919369     2.523970771     0.090962582     C.3   1  noname   -0.417343
   10   C10        2.914376509    -0.000011302    -0.090515748     C.3   1  noname   -0.439186
   11   C11        1.456837639    -2.523949196     0.090882301     C.3   1  noname   -0.417466
   12   C12       -1.456859434    -2.523891095    -0.090761126     C.3   1  noname   -0.417446
   13   H13       -3.282308333    -0.866997683     0.621571822       H   1  noname    0.138873
   14   H14       -3.282417469     0.867232668     0.621102111       H   1  noname    0.138866
   15   H15       -3.376504692    -0.000267152    -0.895272125       H   1  noname    0.138339
   16   H16       -1.687784115     2.924425891     0.894705200       H   1  noname    0.129107
   17   H17       -0.890040795     3.276033572    -0.622144676       H   1  noname    0.128630
   18   H18       -2.392070113     2.409120705    -0.621689242       H   1  noname    0.131430
   19   H19        0.890316839     3.275649408     0.623247033       H   1  noname    0.128627
   20   H20        1.686823962     2.925119711    -0.894565687       H   1  noname    0.129129
   21   H21        2.392534862     2.409092457     0.620882852       H   1  noname    0.131446
   22   H22        3.282297577    -0.866886634    -0.622048681       H   1  noname    0.138839
   23   H23        3.282462860     0.867312860    -0.621208708       H   1  noname    0.138837
   24   H24        3.376701512    -0.000496348     0.895005800       H   1  noname    0.138294
   25   H25        0.890492936    -3.275309968     0.623919355       H   1  noname    0.128646
   26   H26        2.392919744    -2.409039664     0.620002999       H   1  noname    0.131478
   27   H27        1.685903330    -2.925536156    -0.894653120       H   1  noname    0.129161
   28   H28       -0.890032184    -3.275832410    -0.622433633       H   1  noname    0.128658
   29   H29       -2.392199284    -2.409139785    -0.621181816       H   1  noname    0.131464
   30   H30       -1.687229526    -2.924617367     0.894792390       H   1  noname    0.129144


@<TRIPOS>BOND
    1      1      2    1
    2      2      3    2
    3      3      4    1
    4      4      5    2
    5      5      6    1
    6      6      7    2
    7      7      8    1
    8      6      9    1
    9      5     10    1
   10      4     11    1
   11      3     12    1
   12      7      2    1
   13      1     13    1
   14      1     14    1
   15      1     15    1
   16      8     16    1
   17      8     17    1
   18      8     18    1
   19      9     19    1
   20      9     20    1
   21      9     21    1
   22     10     22    1
   23     10     23    1
   24     10     24    1
   25     11     25    1
   26     11     26    1
   27     11     27    1
   28     12     28    1
   29     12     29    1
   30     12     30    1
#
#	File Created by: Spartan'20 Export
#

@<TRIPOS>MOLECULE
M0328
17 17
SMALL
USER_CHARGES


@<TRIPOS>ATOM
    1   C1        -2.334485521    -0.000005507    -1.065476887     C.3   1  noname   -0.763323
    2   C2        -1.171198477     0.000002393    -0.127119933     C.2   1  noname    0.682854
    3   C3        -1.225633918    -0.000000047     1.201466727     C.2   1  noname   -0.828107
    4   C4        -0.000002082     0.000006519     2.007187704     C.2   1  noname    1.017141
    5   O5        -0.000004134     0.000008477     3.209268780     O.2   1  noname   -0.642608
    6   C6         1.225635533     0.000011252     1.201470372     C.2   1  noname   -0.828105
    7   C7         1.171206952     0.000014573    -0.127115049     C.2   1  noname    0.682851
    8   O8         0.000004093     0.000010705    -0.798181184     O.3   1  noname   -0.405238
    9   C9         2.334487510    -0.000003020    -1.065480192     C.3   1  noname   -0.763322
   10   H10       -3.267080607    -0.000022537    -0.518357793       H   1  noname    0.224082
   11   H11       -2.297738731    -0.876303279    -1.703978369       H   1  noname    0.217177
   12   H12       -2.297759303     0.876303569    -1.703961233       H   1  noname    0.217177
   13   H13       -2.170786300    -0.000006142     1.708293667       H   1  noname    0.265493
   14   H14        2.170784415     0.000009609     1.708304541       H   1  noname    0.265492
   15   H15        3.267090576    -0.000048853    -0.518376504       H   1  noname    0.224083
   16   H16        2.297717385    -0.876291618    -1.703996818       H   1  noname    0.217176
   17   H17        2.297762609     0.876313906    -1.703947830       H   1  noname    0.217177


@<TRIPOS>BOND
    1      1      2    1
    2      2      3    2
    3      3      4    1
    4      4      5    2
    5      4      6    1
    6      6      7    2
    7      7      8    1
    8      7      9    1
    9      8      2    1
   10      1     10    1
   11      1     11    1
   12      1     12    1
   13      3     13    1
   14      6     14    1
   15      9     15    1
   16      9     16    1
   17      9     17    1
#
#	File Created by: Spartan'20 Export
#

@<TRIPOS>MOLECULE
M0329
17 17
SMALL
USER_CHARGES


@<TRIPOS>ATOM
    1   C1        -2.529792543    -0.063196267     0.684954543     C.3   1  noname   -0.771315
    2   C2        -1.204235750     0.003281979    -0.034183716     C.2   1  noname    0.185563
    3   C3        -0.000132646    -0.060429834     0.650377807     C.2   1  noname   -0.285674
    4   C4         1.204155424     0.002847934    -0.033976530     C.2   1  noname    0.185588
    5   C5         1.131755351     0.130406061    -1.414412371     C.2   1  noname    0.170037
    6   N6         0.000350137     0.193540680    -2.089294045     N.2   1  noname   -0.559841
    7   C7        -1.131339017     0.131406766    -1.414704477     C.2   1  noname    0.169951
    8   C8         2.529563706    -0.063300963     0.685456586     C.3   1  noname   -0.771385
    9   H9        -2.628793823     0.745941614     1.401566179       H   1  noname    0.216271
   10   H10       -3.356973582     0.008791321    -0.011634347       H   1  noname    0.205333
   11   H11       -2.635533718    -0.996725641     1.228958654       H   1  noname    0.217067
   12   H12       -0.000228603    -0.159855635     1.723940782       H   1  noname    0.204983
   13   H13        2.034672648     0.184271490    -1.998547052       H   1  noname    0.097377
   14   H14       -2.034086353     0.185501911    -1.999207433       H   1  noname    0.097402
   15   H15        2.634542159    -0.996415538     1.231148775       H   1  noname    0.216952
   16   H16        3.356774647     0.006884963    -0.011586512       H   1  noname    0.205363
   17   H17        2.629301963     0.747049158     1.401143157       H   1  noname    0.216327


@<TRIPOS>BOND
    1      1      2    1
    2      2      3    2
    3      3      4    1
    4      4      5    2
    5      5      6    1
    6      6      7    2
    7      4      8    1
    8      7      2    1
    9      1      9    1
   10      1     10    1
   11      1     11    1
   12      3     12    1
   13      5     13    1
   14      7     14    1
   15      8     15    1
   16      8     16    1
   17      8     17    1
#
#	File Created by: Spartan'20 Export
#

@<TRIPOS>MOLECULE
M0330
20 20
SMALL
USER_CHARGES


@<TRIPOS>ATOM
    1   C1        -0.000014689     0.003125105     2.820438899     C.3   1  noname   -0.695014
    2   C2         0.000072650    -0.015804113     1.311702356     C.2   1  noname    0.762760
    3   C3        -1.184735047    -0.012407931     0.591654178     C.2   1  noname   -0.877699
    4   C4        -1.140911841    -0.001948579    -0.795133518     C.2   1  noname    0.857284
    5   N5        -0.000000750     0.003150819    -1.467449838     N.2   1  noname   -0.781668
    6   C6         1.140926601    -0.002171124    -0.795124419     C.2   1  noname    0.856927
    7   C7         1.184830393    -0.012632627     0.591689389     C.2   1  noname   -0.877653
    8   C8         2.412688236     0.002462832    -1.607344429     C.3   1  noname   -0.752111
    9   C9        -2.412684309     0.002827310    -1.607321647     C.3   1  noname   -0.752898
   10   H10       -0.878208804    -0.490475220     3.220368672       H   1  noname    0.184090
   11   H11       -0.001323718     1.026315267     3.185675654       H   1  noname    0.186747
   12   H12        0.879274183    -0.488351241     3.220468326       H   1  noname    0.184039
   13   H13       -2.133766621    -0.019537454     1.098642765       H   1  noname    0.269282
   14   H14        2.133872776    -0.019936254     1.098637790       H   1  noname    0.269243
   15   H15        3.024124564    -0.865447932    -1.378750604       H   1  noname    0.188425
   16   H16        2.173824201    -0.007935417    -2.661512885       H   1  noname    0.204645
   17   H17        3.007524149     0.885513884    -1.393232141       H   1  noname    0.190032
   18   H18       -3.023715613    -0.865568394    -1.379461750       H   1  noname    0.188460
   19   H19       -2.173845326    -0.006594407    -2.661508523       H   1  noname    0.204912
   20   H20       -3.007931035     0.885415476    -1.392438275       H   1  noname    0.190199


@<TRIPOS>BOND
    1      1      2    1
    2      2      3    2
    3      3      4    1
    4      4      5    2
    5      5      6    1
    6      6      7    2
    7      6      8    1
    8      4      9    1
    9      7      2    1
   10      1     10    1
   11      1     11    1
   12      1     12    1
   13      3     13    1
   14      7     14    1
   15      8     15    1
   16      8     16    1
   17      8     17    1
   18      9     18    1
   19      9     19    1
   20      9     20    1
#
#	File Created by: Spartan'20 Export
#

@<TRIPOS>MOLECULE
M0331
20 20
SMALL
USER_CHARGES


@<TRIPOS>ATOM
    1   C1        -3.329830988    -0.460574494    -0.163875520     C.3   1  noname   -0.805413
    2   C2        -1.854379131    -0.167534242    -0.032345702     C.2   1  noname    0.507668
    3   C3        -1.413388408     1.048691833     0.483454469     C.2   1  noname   -0.370757
    4   C4        -0.066578126     1.331997654     0.580589447     C.2   1  noname   -0.042647
    5   C5         0.885620290     0.404793964     0.165453677     C.2   1  noname   -0.171250
    6   C6         0.449040118    -0.810294476    -0.347198139     C.2   1  noname   -0.074732
    7   C7        -0.903330075    -1.091604785    -0.443159174     C.2   1  noname   -0.378008
    8   C8         2.334827904     0.760353071     0.294900560     C.2   1  noname    0.733635
    9   O9         2.665323994     1.817106815     0.747221497     O.2   1  noname   -0.552010
   10   C10        3.380365990    -0.238868411    -0.155697812     C.3   1  noname   -0.684409
   11   H11       -3.896482377     0.010031600     0.631337437       H   1  noname    0.212870
   12   H12       -3.525616155    -1.526574298    -0.132602005       H   1  noname    0.212943
   13   H13       -3.713455915    -0.083188562    -1.108073771       H   1  noname    0.214348
   14   H14       -2.133287600     1.777630245     0.812961121       H   1  noname    0.181414
   15   H15        0.266611304     2.270532877     0.980359562       H   1  noname    0.142547
   16   H16        1.154873647    -1.551436761    -0.674067807       H   1  noname    0.138841
   17   H17       -1.218511673    -2.040636412    -0.840499931       H   1  noname    0.181047
   18   H18        3.297933316    -1.164896354     0.404309096       H   1  noname    0.178352
   19   H19        4.358744269     0.191068364     0.005286759       H   1  noname    0.196995
   20   H20        3.261519616    -0.476597629    -1.208353763       H   1  noname    0.178565


@<TRIPOS>BOND
    1      1      2    1
    2      2      3    2
    3      3      4    1
    4      4      5    2
    5      5      6    1
    6      6      7    2
    7      5      8    1
    8      8      9    2
    9      8     10    1
   10      7      2    1
   11      1     11    1
   12      1     12    1
   13      1     13    1
   14      3     14    1
   15      4     15    1
   16      6     16    1
   17      7     17    1
   18     10     18    1
   19     10     19    1
   20     10     20    1
#
#	File Created by: Spartan'20 Export
#

@<TRIPOS>MOLECULE
M0332
17 17
SMALL
USER_CHARGES


@<TRIPOS>ATOM
    1   C1        -0.003131344    -0.000022668     2.713064053     C.3   1  noname   -0.752144
    2   C2        -0.038179084     0.000012511     1.201918050     C.2   1  noname    0.362552
    3   C3        -0.043244617     1.184962179     0.477753472     C.2   1  noname   -0.264193
    4   C4        -0.046830116     1.193353350    -0.905652889     C.2   1  noname   -0.368405
    5   C5        -0.046490184     0.000030167    -1.619632472     C.2   1  noname    0.516300
    6   C6        -0.046763885    -1.193297611    -0.905662108     C.2   1  noname   -0.368423
    7   C7        -0.043199283    -1.184926557     0.477743293     C.2   1  noname   -0.264180
    8   N8        -0.103524077     0.000032228    -3.018295753     N.3   1  noname   -0.938389
    9   H9        -0.498114789     0.876061475     3.118685308       H   1  noname    0.198770
   10   H10       -0.498342341    -0.875994790     3.118659622       H   1  noname    0.198767
   11   H11        1.017665582    -0.000170273     3.087837877       H   1  noname    0.189868
   12   H12       -0.045544429     2.126339472     1.000896326       H   1  noname    0.178084
   13   H13       -0.059989412     2.131089436    -1.434803785       H   1  noname    0.192119
   14   H14       -0.059845868    -2.131031025    -1.434822513       H   1  noname    0.192110
   15   H15       -0.045451253    -2.126312094     1.000873400       H   1  noname    0.178086
   16   H16        0.280298437    -0.819065293    -3.439271666       H   1  noname    0.374541
   17   H17        0.280686663     0.818939494    -3.439290214       H   1  noname    0.374538


@<TRIPOS>BOND
    1      1      2    1
    2      2      3    2
    3      3      4    1
    4      4      5    2
    5      5      6    1
    6      6      7    2
    7      5      8    1
    8      7      2    1
    9      1      9    1
   10      1     10    1
   11      1     11    1
   12      3     12    1
   13      4     13    1
   14      6     14    1
   15      7     15    1
   16      8     16    1
   17      8     17    1
#
#	File Created by: Spartan'20 Export
#

@<TRIPOS>MOLECULE
M0333
26 26
SMALL
USER_CHARGES


@<TRIPOS>ATOM
    1   C1         4.708193386     0.366863765    -0.399002046     C.3   1  noname   -0.783988
    2   C2         3.215520314     0.129754582    -0.395518965     C.2   1  noname    0.376175
    3   C3         2.323754201     1.164226975    -0.635525688     C.2   1  noname   -0.284897
    4   C4         0.953085296     0.957677827    -0.612108848     C.2   1  noname   -0.317067
    5   C5         0.429103509    -0.301041537    -0.335437244     C.2   1  noname    0.436387
    6   C6         1.320129348    -1.348765644    -0.120558556     C.2   1  noname   -0.298680
    7   C7         2.684472439    -1.132369299    -0.143786546     C.2   1  noname   -0.273326
    8   N8        -0.947708762    -0.577467659    -0.313144615     N.2   1  noname   -0.607339
    9   C9        -1.715863269     0.216976628     0.292571465     C.2   1  noname    0.398698
   10   N10       -3.071326777     0.112563554     0.284317860   N.pl3   1  noname   -0.066434
   11   C11       -3.825631876     0.732441569     1.350391565     C.3   1  noname   -0.485561
   12   C12       -3.678959011    -1.035571847    -0.352883480     C.3   1  noname   -0.527255
   13   H13        5.052270503     0.730254361     0.566267638       H   1  noname    0.199615
   14   H14        5.251069524    -0.546460784    -0.616098217       H   1  noname    0.208760
   15   H15        4.989610297     1.105429828    -1.142930295       H   1  noname    0.207077
   16   H16        2.699331483     2.148691152    -0.858373577       H   1  noname    0.178798
   17   H17        0.289831549     1.772521650    -0.842814584       H   1  noname    0.156842
   18   H18        0.924783100    -2.330282640     0.066524171       H   1  noname    0.177075
   19   H19        3.349280974    -1.962125039     0.030415941       H   1  noname    0.171506
   20   H20       -1.349284316     1.064558000     0.859709427       H   1  noname    0.060622
   21   H21       -4.803359028     1.023330957     0.985579389       H   1  noname    0.175942
   22   H22       -3.318655946     1.624693987     1.694392620       H   1  noname    0.158008
   23   H23       -3.963697750     0.066756868     2.201253339       H   1  noname    0.176520
   24   H24       -3.639259743    -1.919051331     0.280312752       H   1  noname    0.183922
   25   H25       -4.715809406    -0.809170619    -0.569794973       H   1  noname    0.192104
   26   H26       -3.160880037    -1.254435306    -1.273758534       H   1  noname    0.186498


@<TRIPOS>BOND
    1      1      2    1
    2      2      3    2
    3      3      4    1
    4      4      5    2
    5      5      6    1
    6      6      7    2
    7      5      8    1
    8      8      9    2
    9      9     10    1
   10     10     11    1
   11     10     12    1
   12      7      2    1
   13      1     13    1
   14      1     14    1
   15      1     15    1
   16      3     16    1
   17      4     17    1
   18      6     18    1
   19      7     19    1
   20      9     20    1
   21     11     21    1
   22     11     22    1
   23     11     23    1
   24     12     24    1
   25     12     25    1
   26     12     26    1
#
#	File Created by: Spartan'20 Export
#

@<TRIPOS>MOLECULE
M0334
18 18
SMALL
USER_CHARGES


@<TRIPOS>ATOM
    1   C1         2.519117813     0.009432388    -0.883062350     C.3   1  noname   -0.740802
    2   C2         1.215015099    -0.013831591    -0.119276471     C.2   1  noname    0.492365
    3   C3         1.201401260    -0.009916801     1.269685868     C.2   1  noname   -0.408599
    4   C4        -0.000067901    -0.007365925     1.957422036     C.2   1  noname   -0.023652
    5   C5        -1.201401040    -0.009712870     1.269664441     C.2   1  noname   -0.408495
    6   C6        -1.214893447    -0.013616169    -0.119374951     C.2   1  noname    0.491777
    7   C7         0.000062169    -0.018734786    -0.793528745     C.2   1  noname   -0.553512
    8   C8        -2.519090388     0.009935332    -0.883010919     C.3   1  noname   -0.739915
    9   H9         2.815795926     1.029442793    -1.114922689       H   1  noname    0.197654
   10   H10        2.436867729    -0.528023091    -1.821717227       H   1  noname    0.194824
   11   H11        3.320986180    -0.441411719    -0.308371772       H   1  noname    0.193755
   12   H12        2.129978454    -0.014063031     1.814466656       H   1  noname    0.184771
   13   H13       -0.000092790    -0.010020162     3.033625265       H   1  noname    0.133219
   14   H14       -2.130041437    -0.013702776     1.814343082       H   1  noname    0.184793
   15   H15        0.000117508    -0.030197824    -1.871357108       H   1  noname    0.216097
   16   H16       -2.818234560     1.030257664    -1.110263259       H   1  noname    0.197585
   17   H17       -2.435645222    -0.523127132    -1.824046514       H   1  noname    0.194574
   18   H18       -3.319875357    -0.445344300    -0.310275342       H   1  noname    0.193563


@<TRIPOS>BOND
    1      1      2    1
    2      2      3    2
    3      3      4    1
    4      4      5    2
    5      5      6    1
    6      6      7    2
    7      6      8    1
    8      7      2    1
    9      1      9    1
   10      1     10    1
   11      1     11    1
   12      3     12    1
   13      4     13    1
   14      5     14    1
   15      7     15    1
   16      8     16    1
   17      8     17    1
   18      8     18    1
#
#	File Created by: Spartan'20 Export
#

@<TRIPOS>MOLECULE
M0335
20 20
SMALL
USER_CHARGES


@<TRIPOS>ATOM
    1   C1        -2.465082743    -1.396883232     0.029758859     C.3   1  noname   -0.795864
    2   C2        -1.477482197    -0.252408456     0.015696404     C.2   1  noname    0.417831
    3   C3        -1.911038128     1.066112349    -0.028465865     C.2   1  noname   -0.281843
    4   C4        -1.005388512     2.116007860    -0.068680407     C.2   1  noname   -0.110259
    5   C5         0.351706609     1.861902370    -0.063510413     C.2   1  noname   -0.153166
    6   C6         0.810613054     0.548647623    -0.016892062     C.2   1  noname   -0.074898
    7   C7        -0.108555205    -0.493029003     0.023241420     C.2   1  noname   -0.330489
    8   C8         2.293720580     0.313934123    -0.008333692     C.2   1  noname    0.741214
    9   O9         3.054723860     1.235568943    -0.045501517     O.2   1  noname   -0.552280
   10   C10        2.815537079    -1.107025466     0.047790475     C.3   1  noname   -0.695040
   11   H11       -2.710625141    -1.712657834    -0.980845437       H   1  noname    0.212516
   12   H12       -2.064359677    -2.258191838     0.553454835       H   1  noname    0.209525
   13   H13       -3.390492532    -1.111677494     0.517550209       H   1  noname    0.211265
   14   H14       -2.966717119     1.276981131    -0.029819573       H   1  noname    0.170524
   15   H15       -1.363051789     3.129564648    -0.100859616       H   1  noname    0.139723
   16   H16        1.065483022     2.662427003    -0.091704110       H   1  noname    0.150363
   17   H17        0.232904086    -1.511458222     0.062620028       H   1  noname    0.178971
   18   H18        3.895835502    -1.076747473     0.044883649       H   1  noname    0.199220
   19   H19        2.469873224    -1.680688563    -0.806297963       H   1  noname    0.182591
   20   H20        2.472396029    -1.610378469     0.945914774       H   1  noname    0.180096


@<TRIPOS>BOND
    1      1      2    1
    2      2      3    2
    3      3      4    1
    4      4      5    2
    5      5      6    1
    6      6      7    2
    7      6      8    1
    8      8      9    2
    9      8     10    1
   10      7      2    1
   11      1     11    1
   12      1     12    1
   13      1     13    1
   14      3     14    1
   15      4     15    1
   16      5     16    1
   17      7     17    1
   18     10     18    1
   19     10     19    1
   20     10     20    1
#
#	File Created by: Spartan'20 Export
#

@<TRIPOS>MOLECULE
M0336
16 16
SMALL
USER_CHARGES


@<TRIPOS>ATOM
    1   C1         2.409642126    -0.098739951    -0.125544006     C.3   1  noname   -0.746677
    2   C2         0.912287743     0.036974124     0.025568616     C.2   1  noname    0.537950
    3   C3         0.369787778     0.789772490     1.065010413     C.2   1  noname   -0.491018
    4   C4        -1.001048236     0.882996976     1.210567583     C.2   1  noname    0.076332
    5   C5        -1.855370194     0.236041547     0.331280213     C.2   1  noname   -0.545418
    6   C6        -1.316793500    -0.510561666    -0.703151373     C.2   1  noname    0.611537
    7   C7         0.059309333    -0.608205107    -0.854957039     C.2   1  noname   -0.586085
    8   O8        -2.086904755    -1.166952540    -1.600952735     O.3   1  noname   -0.658612
    9   H9         2.922030951     0.788612373     0.228326818       H   1  noname    0.199495
   10   H10        2.778881598    -0.943211589     0.450043757       H   1  noname    0.199718
   11   H11        2.689251897    -0.259489920    -1.160528845       H   1  noname    0.196109
   12   H12        1.019202789     1.300187809     1.753977599       H   1  noname    0.194477
   13   H13       -1.415671867     1.466603255     2.013443555       H   1  noname    0.125910
   14   H14       -2.923203016     0.315007728     0.448047907       H   1  noname    0.196238
   15   H15        0.443657401    -1.193654994    -1.670531665       H   1  noname    0.243336
   16   H16       -3.005060049    -1.035380534    -1.410600798       H   1  noname    0.446709


@<TRIPOS>BOND
    1      1      2    1
    2      2      3    2
    3      3      4    1
    4      4      5    2
    5      5      6    1
    6      6      7    2
    7      6      8    1
    8      7      2    1
    9      1      9    1
   10      1     10    1
   11      1     11    1
   12      3     12    1
   13      4     13    1
   14      5     14    1
   15      7     15    1
   16      8     16    1
#
#	File Created by: Spartan'20 Export
#

@<TRIPOS>MOLECULE
M0337
17 17
SMALL
USER_CHARGES


@<TRIPOS>ATOM
    1   C1         2.412159105     0.000119898    -1.017641921     C.3   1  noname   -0.803188
    2   C2         1.145074051    -0.000046179    -0.198760711     C.2   1  noname    0.854632
    3   C3         1.191573627    -0.000154258     1.189566820     C.2   1  noname   -0.685964
    4   C4        -0.000029732    -0.000214729     1.889369645     C.2   1  noname    0.236476
    5   C5        -1.191591957    -0.000148352     1.189575815     C.2   1  noname   -0.685935
    6   C6        -1.145019810    -0.000041642    -0.198760711     C.2   1  noname    0.854622
    7   N7         0.000039492     0.000028440    -0.864394085     N.2   1  noname   -0.770854
    8   C8        -2.412130550     0.000124400    -1.017617373     C.3   1  noname   -0.803208
    9   H9         3.016451978     0.876352793    -0.800114389       H   1  noname    0.198490
   10   H10        2.167742909    -0.000624138    -2.071214497       H   1  noname    0.217200
   11   H11        3.017378767    -0.875227679    -0.799077750       H   1  noname    0.198448
   12   H12        2.136946139    -0.000192633     1.701912695       H   1  noname    0.232595
   13   H13       -0.000039383    -0.000306440     2.965544059       H   1  noname    0.109940
   14   H14       -2.136988384    -0.000180140     1.701877351       H   1  noname    0.232598
   15   H15       -3.016443593     0.876327376    -0.800020207       H   1  noname    0.198492
   16   H16       -3.017328993    -0.875237703    -0.799043892       H   1  noname    0.198451
   17   H17       -2.167793666    -0.000579016    -2.071200848       H   1  noname    0.217207


@<TRIPOS>BOND
    1      1      2    1
    2      2      3    2
    3      3      4    1
    4      4      5    2
    5      5      6    1
    6      6      7    2
    7      6      8    1
    8      7      2    1
    9      1      9    1
   10      1     10    1
   11      1     11    1
   12      3     12    1
   13      4     13    1
   14      5     14    1
   15      8     15    1
   16      8     16    1
   17      8     17    1
#
#	File Created by: Spartan'20 Export
#

@<TRIPOS>MOLECULE
M0338
15 15
SMALL
USER_CHARGES


@<TRIPOS>ATOM
    1   C1        -0.000050325     0.006611799     2.224438749     C.3   1  noname   -0.808547
    2   C2         0.000053260    -0.012983876     0.713147813     C.2   1  noname    0.480280
    3   C3         1.193318754    -0.010473134    -0.000156824     C.2   1  noname   -0.355767
    4   C4         1.195728200    -0.000735229    -1.385813596     C.2   1  noname   -0.069875
    5   C5         0.000021937     0.004758474    -2.084993354     C.2   1  noname   -0.205155
    6   C6        -1.195703371    -0.000039575    -1.385735747     C.2   1  noname   -0.069874
    7   C7        -1.193250490    -0.009785784    -0.000120110     C.2   1  noname   -0.355783
    8   H8        -0.876237377    -0.491375845     2.625523303       H   1  noname    0.209396
    9   H9         0.878349793    -0.487435575     2.625678067       H   1  noname    0.209398
   10   H10       -0.002335388     1.026668984     2.600653821       H   1  noname    0.210782
   11   H11        2.129679604    -0.017857150     0.531750021       H   1  noname    0.175642
   12   H12        2.131093014    -0.000698421    -1.917836200       H   1  noname    0.130329
   13   H13       -0.000004673     0.009434594    -3.160656787       H   1  noname    0.143150
   14   H14       -2.131088606     0.000546378    -1.917728098       H   1  noname    0.130318
   15   H15       -2.129574332    -0.016635640     0.531848943       H   1  noname    0.175705


@<TRIPOS>BOND
    1      1      2    1
    2      2      3    2
    3      3      4    1
    4      4      5    2
    5      5      6    1
    6      6      7    2
    7      7      2    1
    8      1      8    1
    9      1      9    1
   10      1     10    1
   11      3     11    1
   12      4     12    1
   13      5     13    1
   14      6     14    1
   15      7     15    1
#
#	File Created by: Spartan'20 Export
#

@<TRIPOS>MOLECULE
M0339
26 26
SMALL
USER_CHARGES


@<TRIPOS>ATOM
    1   C1        -1.519296673     0.451730667     2.168250446     C.3   1  noname   -0.765908
    2   C2        -1.878534382     0.596305221     0.709406536     C.2   1  noname    0.349434
    3   C3        -3.190800823     0.786721504     0.311310314     C.2   1  noname   -0.306915
    4   C4        -3.536777157     0.923501656    -1.026759943     C.2   1  noname   -0.183966
    5   C5        -2.548836879     0.875669013    -1.988682275     C.2   1  noname   -0.180928
    6   C6        -1.227453769     0.684249777    -1.611791067     C.2   1  noname   -0.274882
    7   C7        -0.881433049     0.527205443    -0.274885404     C.2   1  noname    0.196099
    8   N8         0.449926233     0.352353638     0.137696576     N.2   1  noname   -0.529779
    9   C9         1.166390360    -0.494243826    -0.461234660     C.2   1  noname    0.383154
   10   N10        2.494362937    -0.662005607    -0.229584567   N.pl3   1  noname   -0.052948
   11   C11        3.117608796     0.084217386     0.841847383     C.3   1  noname   -0.526144
   12   C12        3.116740704    -1.914734393    -0.593151938     C.3   1  noname   -0.549965
   13   H13       -2.395556538     0.574707573     2.795006732       H   1  noname    0.195031
   14   H14       -0.779604356     1.188513309     2.461588765       H   1  noname    0.203173
   15   H15       -1.092013114    -0.524690159     2.374113694       H   1  noname    0.203415
   16   H16       -3.961882482     0.833512039     1.061728538       H   1  noname    0.174233
   17   H17       -4.564172504     1.077028277    -1.304910963       H   1  noname    0.159230
   18   H18       -2.794201837     0.997575558    -3.028802882       H   1  noname    0.161634
   19   H19       -0.452874126     0.687367927    -2.358590998       H   1  noname    0.155789
   20   H20        0.773153128    -1.150300059    -1.229030851       H   1  noname    0.071617
   21   H21        2.922263850    -0.363554347     1.814560657       H   1  noname    0.183044
   22   H22        4.188403174     0.106037255     0.677919488       H   1  noname    0.195772
   23   H23        2.737343955     1.092893056     0.848399162       H   1  noname    0.181307
   24   H24        2.616592061    -2.342823868    -1.452335446       H   1  noname    0.172724
   25   H25        4.153369476    -1.745271303    -0.859204757       H   1  noname    0.194159
   26   H26        3.087283013    -2.641965738     0.217137462       H   1  noname    0.191615


@<TRIPOS>BOND
    1      1      2    1
    2      2      3    2
    3      3      4    1
    4      4      5    2
    5      5      6    1
    6      6      7    2
    7      7      8    1
    8      8      9    2
    9      9     10    1
   10     10     11    1
   11     10     12    1
   12      7      2    1
   13      1     13    1
   14      1     14    1
   15      1     15    1
   16      3     16    1
   17      4     17    1
   18      5     18    1
   19      6     19    1
   20      9     20    1
   21     11     21    1
   22     11     22    1
   23     11     23    1
   24     12     24    1
   25     12     25    1
   26     12     26    1
#
#	File Created by: Spartan'20 Export
#

@<TRIPOS>MOLECULE
M0340
14 14
SMALL
USER_CHARGES


@<TRIPOS>ATOM
    1   C1        -0.199599641     0.000023195     2.211107083     C.3   1  noname   -0.874822
    2   C2        -0.148547201    -0.000037810     0.703746956     C.2   1  noname    0.952439
    3   C3         1.072081680    -0.000178439     0.030176813     C.2   1  noname   -0.699510
    4   C4         1.076329361    -0.000142929    -1.349120127     C.2   1  noname    0.257490
    5   C5        -0.135845754     0.000039470    -2.022585940     C.2   1  noname   -0.543320
    6   C6        -1.289812361     0.000176594    -1.264979201     C.2   1  noname    0.406169
    7   N7        -1.301915525     0.000144824     0.059108577     N.2   1  noname   -0.738354
    8   H8        -1.228971011    -0.000827906     2.542556948       H   1  noname    0.230569
    9   H9         0.299141357    -0.875248652     2.617866600       H   1  noname    0.210238
   10   H10        0.297626101     0.876224868     2.617694864       H   1  noname    0.210279
   11   H11        1.993104216    -0.000316345     0.585565331       H   1  noname    0.231147
   12   H12        2.005340218    -0.000255130    -1.892020550       H   1  noname    0.096162
   13   H13       -0.184482674     0.000075870    -3.095939605       H   1  noname    0.196210
   14   H14       -2.254448765     0.000322390    -1.743177750       H   1  noname    0.065302


@<TRIPOS>BOND
    1      1      2    1
    2      2      3    2
    3      3      4    1
    4      4      5    2
    5      5      6    1
    6      6      7    2
    7      7      2    1
    8      1      8    1
    9      1      9    1
   10      1     10    1
   11      3     11    1
   12      4     12    1
   13      5     13    1
   14      6     14    1
#
#	File Created by: Spartan'20 Export
#

@<TRIPOS>MOLECULE
M0341
15 15
SMALL
USER_CHARGES


@<TRIPOS>ATOM
    1   C1        -2.210524112     0.090987769     0.215866168     C.3   1  noname   -0.757619
    2   C2        -0.707661393     0.005662917     0.106089597     C.2   1  noname    0.456880
    3   C3         0.086606816    -0.352966286     1.188550608     C.2   1  noname   -0.377653
    4   C4         1.457502203    -0.388888729     1.025512925     C.2   1  noname   -0.059698
    5   C5         2.016495422    -0.074113410    -0.192330384     C.2   1  noname   -0.264560
    6   N6         1.247751725     0.268270437    -1.232719116       N   1  noname    0.624309
    7   O7         1.776778754     0.554610326    -2.357302159       O   1  noname   -0.652617
    8   C8        -0.084488599     0.306263512    -1.088105389     C.2   1  noname   -0.399058
    9   H9        -2.602608901    -0.725759173     0.810660523       H   1  noname    0.207526
   10   H10       -2.508298654     1.019629126     0.691976542       H   1  noname    0.212170
   11   H11       -2.680171786     0.051854180    -0.758358564       H   1  noname    0.215095
   12   H12       -0.358957107    -0.600165256     2.135036366       H   1  noname    0.203873
   13   H13        2.107552447    -0.662317219     1.835294649       H   1  noname    0.160120
   14   H14        3.065631816    -0.079594999    -0.400408861       H   1  noname    0.202942
   15   H15       -0.605608630     0.586526806    -1.979762906       H   1  noname    0.228293


@<TRIPOS>BOND
    1      1      2    1
    2      2      3    2
    3      3      4    1
    4      4      5    2
    5      5      6    1
    6      6      7    1
    7      6      8    2
    8      8      2    1
    9      1      9    1
   10      1     10    1
   11      1     11    1
   12      3     12    1
   13      4     13    1
   14      5     14    1
   15      8     15    1
#
#	File Created by: Spartan'20 Export
#

@<TRIPOS>MOLECULE
M0342
14 14
SMALL
USER_CHARGES


@<TRIPOS>ATOM
    1   C1        -2.071297945     0.008276438     0.264549808     C.3   1  noname   -0.797550
    2   C2        -0.586907031     0.000604433    -0.008342895     C.2   1  noname    0.095816
    3   C3         0.346366144     0.029843912     1.020308552     C.2   1  noname    0.001218
    4   C4         1.694123933     0.019767060     0.719181050     C.2   1  noname   -0.454633
    5   C5         2.069523854    -0.019481833    -0.614249280     C.2   1  noname    0.393280
    6   N6         1.201075139    -0.046776211    -1.604805457     N.2   1  noname   -0.626922
    7   C7        -0.085420355    -0.036700546    -1.301343953     C.2   1  noname    0.264930
    8   H8        -2.367998100    -0.857694121     0.849024071       H   1  noname    0.221646
    9   H9        -2.365099787     0.893839579     0.821141161       H   1  noname    0.221962
   10   H10       -2.638687420    -0.006167593    -0.658367331       H   1  noname    0.216931
   11   H11        0.019667141     0.060309071     2.045940226       H   1  noname    0.143084
   12   H12        2.438601210     0.042192020     1.493591909       H   1  noname    0.185812
   13   H13        3.109748554    -0.028708975    -0.889227076       H   1  noname    0.053697
   14   H14       -0.763695337    -0.059303234    -2.137400786       H   1  noname    0.080728


@<TRIPOS>BOND
    1      1      2    1
    2      2      3    2
    3      3      4    1
    4      4      5    2
    5      5      6    1
    6      6      7    2
    7      7      2    1
    8      1      8    1
    9      1      9    1
   10      1     10    1
   11      3     11    1
   12      4     12    1
   13      5     13    1
   14      7     14    1
#
#	File Created by: Spartan'20 Export
#

@<TRIPOS>MOLECULE
M0343
15 15
SMALL
USER_CHARGES


@<TRIPOS>ATOM
    1   C1        -0.000013169    -0.006738922    -2.260055954     C.3   1  noname   -0.775036
    2   C2         0.000021590     0.012308117    -0.752203423     C.2   1  noname    0.456045
    3   C3        -1.178386071     0.009649617    -0.018554873     C.2   1  noname   -0.358201
    4   C4        -1.152476963     0.001249112     1.357235260     C.2   1  noname   -0.115445
    5   N5         0.000013315    -0.003392183     2.036015381       N   1  noname    0.485020
    6   O6         0.000001040    -0.009093974     3.315766996       O   1  noname   -0.648971
    7   C7         1.152492124     0.001519475     1.357250801     C.2   1  noname   -0.115471
    8   C8         1.178412874     0.009920991    -0.018549223     C.2   1  noname   -0.358138
    9   H9         0.877877787     0.488497353    -2.658459543       H   1  noname    0.212326
   10   H10       -0.000941325    -1.027414095    -2.632271858       H   1  noname    0.214582
   11   H11       -0.877045818     0.490054841    -2.658427165       H   1  noname    0.212319
   12   H12       -2.134382367     0.015789097    -0.509454536       H   1  noname    0.206179
   13   H13       -2.025717616     0.000438675     1.975562678       H   1  noname    0.189322
   14   H14        2.025731940     0.000920059     1.975580426       H   1  noname    0.189327
   15   H15        2.134412657     0.016291836    -0.509434969       H   1  noname    0.206141


@<TRIPOS>BOND
    1      1      2    1
    2      2      3    2
    3      3      4    1
    4      4      5    2
    5      5      6    1
    6      5      7    1
    7      7      8    2
    8      8      2    1
    9      1      9    1
   10      1     10    1
   11      1     11    1
   12      3     12    1
   13      4     13    1
   14      7     14    1
   15      8     15    1
#
#	File Created by: Spartan'20 Export
#

@<TRIPOS>MOLECULE
M0344
17 17
SMALL
USER_CHARGES


@<TRIPOS>ATOM
    1   C1         1.410153307     0.000038521    -1.365457609     C.3   1  noname   -0.743140
    2   C2         0.647772572     0.000010227    -0.063564689     C.2   1  noname    0.524787
    3   C3         1.313750731     0.000028932     1.150935026     C.2   1  noname   -0.618704
    4   C4         0.585130763     0.000008532     2.328675489     C.2   1  noname    0.396494
    5   N5        -0.731718884    -0.000026708     2.363945889     N.2   1  noname   -0.639243
    6   C6        -1.366487091    -0.000036764     1.204826240     C.2   1  noname    0.268802
    7   C7        -0.750463496    -0.000003791    -0.037264084     C.2   1  noname   -0.090926
    8   C8        -1.576608971    -0.000034289    -1.300749997     C.3   1  noname   -0.677961
    9   H9         1.167418543     0.874420557    -1.962150424       H   1  noname    0.203213
   10   H10        1.167179839    -0.874162867    -1.962342139       H   1  noname    0.203210
   11   H11        2.479388697    -0.000137245    -1.191364015       H   1  noname    0.205797
   12   H12        2.388533690     0.000056746     1.186840290       H   1  noname    0.217423
   13   H13        1.090707451     0.000018788     3.279159432       H   1  noname    0.065260
   14   H14       -2.442312570    -0.000075379     1.261570561       H   1  noname    0.093062
   15   H15       -2.635256516     0.000167027    -1.068515110       H   1  noname    0.192378
   16   H16       -1.373723837    -0.874930678    -1.912156413       H   1  noname    0.199774
   17   H17       -1.373464226     0.874658391    -1.912388447       H   1  noname    0.199775


@<TRIPOS>BOND
    1      1      2    1
    2      2      3    2
    3      3      4    1
    4      4      5    2
    5      5      6    1
    6      6      7    2
    7      7      8    1
    8      7      2    1
    9      1      9    1
   10      1     10    1
   11      1     11    1
   12      3     12    1
   13      4     13    1
   14      6     14    1
   15      8     15    1
   16      8     16    1
   17      8     17    1
#
#	File Created by: Spartan'20 Export
#

@<TRIPOS>MOLECULE
M0345
19 20
SMALL
USER_CHARGES


@<TRIPOS>ATOM
    1   C1         1.985251531     0.000004824     1.704281332     C.3   1  noname   -0.548513
    2   N2         0.609928275     0.000012886     1.251874514   N.pl3   1  noname    0.195793
    3   C3         0.225374579     0.000008183    -0.085204873     C.2   1  noname   -0.028749
    4   C4         0.960978336     0.000001431    -1.253135100     C.2   1  noname   -0.199375
    5   C5         0.255228562    -0.000004937    -2.448604839     C.2   1  noname   -0.189826
    6   C6        -1.134707230    -0.000005010    -2.466531845     C.2   1  noname   -0.082211
    7   C7        -1.870277531     0.000001091    -1.289382307     C.2   1  noname   -0.380374
    8   C8        -1.162578321     0.000007323    -0.106128595     C.2   1  noname    0.373878
    9   N9        -1.553436126     0.000008671     1.221161434   N.pl3   1  noname   -0.513593
   10   C10       -0.484592476     0.000006244     2.046665466     C.2   1  noname    0.210801
   11   S11       -0.562706659    -0.000007504     3.721739377     S.2   1  noname   -0.463680
   12   H12        2.493037494     0.884027316     1.338326660       H   1  noname    0.185127
   13   H13        1.992109913    -0.000011817     2.780724346       H   1  noname    0.187836
   14   H14        2.493015327    -0.884027509     1.338314673       H   1  noname    0.185124
   15   H15        2.035036356     0.000002424    -1.243924378       H   1  noname    0.176488
   16   H16        0.795592679    -0.000009857    -3.377488259       H   1  noname    0.155576
   17   H17       -1.651200467    -0.000009333    -3.408920819       H   1  noname    0.143370
   18   H18       -2.944816880     0.000000492    -1.302434422       H   1  noname    0.205557
   19   H19       -2.481237362    -0.000004917     1.578667638       H   1  noname    0.386769


@<TRIPOS>BOND
    1      1      2    1
    2      2      3    1
    3      3      4    2
    4      4      5    1
    5      5      6    2
    6      6      7    1
    7      7      8    2
    8      8      9    1
    9      9     10    1
   10     10     11    2
   11     10      2    1
   12      8      3    1
   13      1     12    1
   14      1     13    1
   15      1     14    1
   16      4     15    1
   17      5     16    1
   18      6     17    1
   19      7     18    1
   20      9     19    1
#
#	File Created by: Spartan'20 Export
#

@<TRIPOS>MOLECULE
M0346
27 29
SMALL
USER_CHARGES


@<TRIPOS>ATOM
    1   C1         2.451142993    -0.000006417     0.372570292     C.3   1  noname   -0.426030
    2   N2         1.021553489    -0.000061875     0.112595416   N.pl3   1  noname   -0.182032
    3   C3         0.340176631     1.205924920     0.013906782     C.2   1  noname    0.306936
    4   C4         1.028510462     2.419291383    -0.148886883     C.2   1  noname   -0.326170
    5   C5         0.338190549     3.606941891    -0.220730666     C.2   1  noname   -0.029847
    6   C6        -1.052015349     3.645924009    -0.140287563     C.2   1  noname   -0.252880
    7   C7        -1.732819318     2.462329636    -0.003186646     C.2   1  noname   -0.020251
    8   C8        -1.056931906     1.242099474     0.068223324     C.2   1  noname   -0.223154
    9   C9        -1.840066952     0.000042026     0.179632583     C.2   1  noname    0.558549
   10   O10       -3.036854757     0.000059947     0.311512836     O.2   1  noname   -0.555278
   11   C11       -1.056956862    -1.242028342     0.068209954     C.2   1  noname   -0.223242
   12   C12        0.340083758    -1.205887338     0.013920107     C.2   1  noname    0.307088
   13   C13        1.028342874    -2.419343963    -0.148813795     C.2   1  noname   -0.326307
   14   C14        0.338060716    -3.607084757    -0.220639087     C.2   1  noname   -0.029792
   15   C15       -1.052070829    -3.646015098    -0.140243719     C.2   1  noname   -0.252918
   16   C16       -1.732823394    -2.462322739    -0.003186428     C.2   1  noname   -0.020236
   17   H17        2.713090602    -0.867504623     0.957353598       H   1  noname    0.171865
   18   H18        3.038536473     0.001266532    -0.540842423       H   1  noname    0.154624
   19   H19        2.711761836     0.866710074     0.959013558       H   1  noname    0.171740
   20   H20        2.095045148     2.436190430    -0.248027485       H   1  noname    0.168362
   21   H21        0.892096427     4.519780940    -0.351742733       H   1  noname    0.132837
   22   H22       -1.577005320     4.581487396    -0.196249061       H   1  noname    0.152637
   23   H23       -2.804372947     2.437349677     0.050843428       H   1  noname    0.144841
   24   H24        2.094867287    -2.436310084    -0.247978223       H   1  noname    0.168349
   25   H25        0.891969267    -4.519918718    -0.351600954       H   1  noname    0.132840
   26   H26       -1.577112555    -4.581541960    -0.196194044       H   1  noname    0.152642
   27   H27       -2.804398322    -2.437372421     0.050827832       H   1  noname    0.144828


@<TRIPOS>BOND
    1      1      2    1
    2      2      3    1
    3      3      4    2
    4      4      5    1
    5      5      6    2
    6      6      7    1
    7      7      8    2
    8      8      9    1
    9      9     10    2
   10      9     11    1
   11     11     12    2
   12     12     13    1
   13     13     14    2
   14     14     15    1
   15     15     16    2
   16     12      2    1
   17      8      3    1
   18     16     11    1
   19      1     17    1
   20      1     18    1
   21      1     19    1
   22      4     20    1
   23      5     21    1
   24      6     22    1
   25      7     23    1
   26     13     24    1
   27     14     25    1
   28     15     26    1
   29     16     27    1
#
#	File Created by: Spartan'20 Export
#

@<TRIPOS>MOLECULE
M0347
22 23
SMALL
USER_CHARGES


@<TRIPOS>ATOM
    1   C1        -2.470802798     0.000008637     1.428306069     C.3   1  noname   -0.511263
    2   N2        -1.088741525     0.000003823     0.996493711   N.pl3   1  noname    0.141974
    3   C3        -0.693074076    -0.000000729    -0.332392223     C.2   1  noname    0.091332
    4   C4        -1.415123956    -0.000007463    -1.508646168     C.2   1  noname   -0.255154
    5   C5        -0.694885861    -0.000012921    -2.695673362     C.2   1  noname   -0.136098
    6   C6         0.694805105    -0.000011519    -2.695681037     C.2   1  noname   -0.136112
    7   C7         1.415119097    -0.000004750    -1.508689790     C.2   1  noname   -0.255135
    8   C8         0.693145898     0.000000083    -0.332391886     C.2   1  noname    0.091278
    9   N9         1.088803151     0.000004556     0.996494272   N.pl3   1  noname    0.142021
   10   C10        0.000034759     0.000006414     1.803869888     C.2   1  noname    0.004508
   11   S11        0.000019225     0.000010281     3.485844523     S.2   1  noname   -0.383681
   12   C12        2.470822573     0.000007145     1.428385099     C.3   1  noname   -0.511244
   13   H13       -2.496605822    -0.000028300     2.503885280       H   1  noname    0.169678
   14   H14       -2.972554256    -0.883865679     1.053349670       H   1  noname    0.181595
   15   H15       -2.972537241     0.883916147     1.053406924       H   1  noname    0.181595
   16   H16       -2.489215677    -0.000007349    -1.512369332       H   1  noname    0.180113
   17   H17       -1.223693243    -0.000018086    -3.631296142       H   1  noname    0.145822
   18   H18        1.223585848    -0.000014823    -3.631320231       H   1  noname    0.145817
   19   H19        2.489210334    -0.000001994    -1.512532680       H   1  noname    0.180111
   20   H20        2.972565290     0.883926100     1.053549738       H   1  noname    0.181589
   21   H21        2.972587698    -0.883863835     1.053463771       H   1  noname    0.181590
   22   H22        2.496535474    -0.000045737     2.503943904       H   1  noname    0.169665


@<TRIPOS>BOND
    1      1      2    1
    2      2      3    1
    3      3      4    2
    4      4      5    1
    5      5      6    2
    6      6      7    1
    7      7      8    2
    8      8      9    1
    9      9     10    1
   10     10     11    2
   11      9     12    1
   12     10      2    1
   13      8      3    1
   14      1     13    1
   15      1     14    1
   16      1     15    1
   17      4     16    1
   18      5     17    1
   19      6     18    1
   20      7     19    1
   21     12     20    1
   22     12     21    1
   23     12     22    1
#
#	File Created by: Spartan'20 Export
#

@<TRIPOS>MOLECULE
M0348
13 13
SMALL
USER_CHARGES


@<TRIPOS>ATOM
    1   C1         1.843343438    -0.215302876     0.031919897     C.3   1  noname   -0.732308
    2   N2         0.401343129    -0.066923106     0.014021605   N.pl3   1  noname    0.654989
    3   C3        -0.492476530    -1.117495810    -0.153185518     C.2   1  noname   -0.501203
    4   C4        -1.720756255    -0.605830675    -0.134358006     C.2   1  noname   -0.090806
    5   N5        -1.569299657     0.756635432     0.041695473   N.pl3   1  noname   -0.155575
    6   C6        -0.270566961     1.093913444     0.130839389     C.2   1  noname   -0.152938
    7   S7         0.330358531     2.657897074     0.343069997     S.2   1  noname   -0.429585
    8   H8         2.204071201    -0.491212237    -0.951407216       H   1  noname    0.210304
    9   H9         2.119637599    -0.980481417     0.745382624       H   1  noname    0.210876
   10   H10        2.279614111     0.724870111     0.322616540       H   1  noname    0.210633
   11   H11       -0.158009681    -2.125476551    -0.265907101       H   1  noname    0.265943
   12   H12       -2.677689770    -1.070021801    -0.225744049       H   1  noname    0.199187
   13   H13       -2.289569156     1.439428413     0.101056366       H   1  noname    0.310482


@<TRIPOS>BOND
    1      1      2    1
    2      2      3    1
    3      3      4    2
    4      4      5    1
    5      5      6    1
    6      6      7    2
    7      6      2    1
    8      1      8    1
    9      1      9    1
   10      1     10    1
   11      3     11    1
   12      4     12    1
   13      5     13    1
#
#	File Created by: Spartan'20 Export
#

@<TRIPOS>MOLECULE
M0349
18 18
SMALL
USER_CHARGES


@<TRIPOS>ATOM
    1   C1         2.341715495     1.066705567    -0.205294498     C.3   1  noname   -0.545481
    2   N2         1.149226071     0.235249501    -0.095827008    N.am   1  noname   -0.037029
    3   C3         1.280888877    -1.125567033     0.004697093     C.2   1  noname    0.019128
    4   C4         0.244799810    -1.945522264     0.128389794     C.2   1  noname   -0.651705
    5   C5        -1.106070445    -1.397982064     0.163582722     C.2   1  noname    0.848369
    6   O6        -2.091623537    -2.067503119     0.271758077     O.2   1  noname   -0.602516
    7   N7        -1.173740715    -0.008285459     0.061413238    N.am   1  noname   -0.240056
    8   C8        -0.090729614     0.834499323    -0.057744629     C.2   1  noname    0.678066
    9   O9        -0.225382981     2.023117377    -0.125947887     O.2   1  noname   -0.575397
   10   C10       -2.483966673     0.643834932     0.089696678     C.3   1  noname   -0.563087
   11   H11        2.957422480     0.718930412    -1.025497057       H   1  noname    0.181843
   12   H12        2.036374519     2.080558459    -0.391760512       H   1  noname    0.222756
   13   H13        2.914788049     1.028565883     0.714081141       H   1  noname    0.184466
   14   H14        2.291958934    -1.484320876    -0.025711920       H   1  noname    0.197634
   15   H15        0.356711568    -3.007232611     0.203937985       H   1  noname    0.255016
   16   H16       -2.544306363     1.312290234     0.936030609       H   1  noname    0.203641
   17   H17       -2.626388317     1.216496797    -0.814741805       H   1  noname    0.201736
   18   H18       -3.231677156    -0.123835059     0.168937979       H   1  noname    0.222616


@<TRIPOS>BOND
    1      1      2    1
    2      2      3    1
    3      3      4    2
    4      4      5    1
    5      5      6    2
    6      5      7    am
    7      7      8    am
    8      8      9    2
    9      7     10    1
   10      8      2    am
   11      1     11    1
   12      1     12    1
   13      1     13    1
   14      3     14    1
   15      4     15    1
   16     10     16    1
   17     10     17    1
   18     10     18    1
#
#	File Created by: Spartan'20 Export
#

@<TRIPOS>MOLECULE
M0350
13 13
SMALL
USER_CHARGES


@<TRIPOS>ATOM
    1   C1        -0.000049720     0.014935116    -1.866002254     C.3   1  noname   -0.663788
    2   N2         0.000163948    -0.048465643    -0.424747220   N.pl3   1  noname    0.413337
    3   C3        -1.106748373    -0.020846889     0.370621721     C.2   1  noname   -0.344822
    4   C4        -0.711804083     0.011943790     1.670633497     C.2   1  noname   -0.215648
    5   C5         0.711805922     0.012469945     1.670748210     C.2   1  noname   -0.215380
    6   C6         1.106996889    -0.020104663     0.370825395     C.2   1  noname   -0.345069
    7   H7         0.876123285    -0.489312896    -2.252378256       H   1  noname    0.201788
    8   H8        -0.878040036    -0.486684977    -2.251563245       H   1  noname    0.201843
    9   H9         0.001286463     1.039826163    -2.222583789       H   1  noname    0.204526
   10   H10       -2.087630672    -0.031213515    -0.058835490       H   1  noname    0.208566
   11   H11       -1.357118020     0.023199053     2.525702429       H   1  noname    0.173011
   12   H12        1.356987913     0.024145442     2.525902375       H   1  noname    0.172977
   13   H13        2.088026483    -0.029890926    -0.058323373       H   1  noname    0.208658


@<TRIPOS>BOND
    1      1      2    1
    2      2      3    1
    3      3      4    2
    4      4      5    1
    5      5      6    2
    6      6      2    1
    7      1      7    1
    8      1      8    1
    9      1      9    1
   10      3     10    1
   11      4     11    1
   12      5     12    1
   13      6     13    1
#
#	File Created by: Spartan'20 Export
#

@<TRIPOS>MOLECULE
M0351
15 15
SMALL
USER_CHARGES


@<TRIPOS>ATOM
    1   C1         0.688505031    -0.000005307     2.031875406     C.3   1  noname   -0.656129
    2   N2         0.203256361    -0.000045398     0.656742635    N.am   1  noname    0.107880
    3   C3         1.118593257    -0.000063137    -0.358478215     C.2   1  noname   -0.126358
    4   C4         0.768175745    -0.000032526    -1.651003636     C.2   1  noname   -0.346355
    5   C5        -0.632866787     0.000003835    -1.959827044     C.2   1  noname    0.105533
    6   C6        -1.547910064     0.000041161    -0.979958260     C.2   1  noname   -0.533277
    7   C7        -1.166119792     0.000028923     0.426342787     C.2   1  noname    0.732388
    8   O8        -1.956778628     0.000094650     1.336550380     O.2   1  noname   -0.642952
    9   H9        -0.161583564    -0.000268289     2.690848140       H   1  noname    0.243768
   10   H10        1.288384063     0.883535216     2.216936884       H   1  noname    0.199884
   11   H11        1.288865552    -0.883235769     2.216829613       H   1  noname    0.199881
   12   H12        2.144957471    -0.000095472    -0.043028080       H   1  noname    0.197108
   13   H13        1.514216231    -0.000041280    -2.421213961       H   1  noname    0.178689
   14   H14       -0.946468493     0.000004902    -2.989027550       H   1  noname    0.125769
   15   H15       -2.603226382     0.000078492    -1.173589099       H   1  noname    0.214171


@<TRIPOS>BOND
    1      1      2    1
    2      2      3    1
    3      3      4    2
    4      4      5    1
    5      5      6    2
    6      6      7    1
    7      7      8    2
    8      7      2    am
    9      1      9    1
   10      1     10    1
   11      1     11    1
   12      3     12    1
   13      4     13    1
   14      5     14    1
   15      6     15    1
#
#	File Created by: Spartan'20 Export
#

@<TRIPOS>MOLECULE
M0352
12 12
SMALL
USER_CHARGES


@<TRIPOS>ATOM
    1   C1        -0.205945159    -0.000434572    -1.834178611     C.3   1  noname   -0.751615
    2   N2        -0.121649656     0.000253480    -0.394705374   N.pl3   1  noname    0.606639
    3   C3         0.975898253     0.001121050     0.375779137     C.2   1  noname   -0.291224
    4   C4         0.558506658    -0.000445890     1.675967828     C.2   1  noname   -0.344938
    5   C5        -0.846535902    -0.000121071     1.573615495     C.2   1  noname    0.083421
    6   N6        -1.237752530     0.001768067     0.328926095     N.2   1  noname   -0.521897
    7   H7        -0.731673877     0.881212513    -2.176260629       H   1  noname    0.229757
    8   H8         0.794396670    -0.001377176    -2.244409540       H   1  noname    0.212885
    9   H9        -0.732998889    -0.881594682    -2.175394705       H   1  noname    0.229597
   10   H10        1.957018413     0.001767129    -0.051828344       H   1  noname    0.207349
   11   H11        1.161336126    -0.001336979     2.559360317       H   1  noname    0.198923
   12   H12       -1.570600106    -0.000811868     2.363128332       H   1  noname    0.141103


@<TRIPOS>BOND
    1      1      2    1
    2      2      3    1
    3      3      4    2
    4      4      5    1
    5      5      6    2
    6      6      2    1
    7      1      7    1
    8      1      8    1
    9      1      9    1
   10      3     10    1
   11      4     11    1
   12      5     12    1
#
#	File Created by: Spartan'20 Export
#

@<TRIPOS>MOLECULE
M0353
12 12
SMALL
USER_CHARGES


@<TRIPOS>ATOM
    1   C1        -0.132081134     0.000517183    -1.673015005     C.3   1  noname   -0.708497
    2   N2        -0.091157305    -0.000395748    -0.227944340   N.pl3   1  noname    0.376522
    3   C3         1.023164980     0.000786624     0.572051268     C.2   1  noname   -0.513112
    4   C4         0.564201597     0.000984166     1.843272809     C.2   1  noname    0.146652
    5   N5        -0.803847300    -0.000747207     1.853881333     N.2   1  noname   -0.547238
    6   C6        -1.148492862    -0.002277563     0.610068386     C.2   1  noname    0.085573
    7   H7        -0.633338385     0.886060698    -2.044360523       H   1  noname    0.205455
    8   H8         0.879619897    -0.005905852    -2.052069016       H   1  noname    0.245783
    9   H9        -0.644396117    -0.878484205    -2.044695616       H   1  noname    0.205253
   10   H10        2.012094704     0.001712600     0.165673976       H   1  noname    0.240779
   11   H11        1.131004399     0.002117768     2.750963972       H   1  noname    0.122089
   12   H12       -2.156772474    -0.004368464     0.246172756       H   1  noname    0.140741


@<TRIPOS>BOND
    1      1      2    1
    2      2      3    1
    3      3      4    2
    4      4      5    1
    5      5      6    2
    6      6      2    1
    7      1      7    1
    8      1      8    1
    9      1      9    1
   10      3     10    1
   11      4     11    1
   12      6     12    1
#
#	File Created by: Spartan'20 Export
#

@<TRIPOS>MOLECULE
M0354
4 3
SMALL
USER_CHARGES


@<TRIPOS>ATOM
    1   N1         0.000005559     0.000000007     0.277548175     N.3   1  noname   -1.087157
    2   H2         0.931795795    -0.000000016    -0.092515100       H   1  noname    0.364277
    3   H3        -0.465900665    -0.806952915    -0.092516539       H   1  noname    0.361440
    4   H4        -0.465900689     0.806952923    -0.092516536       H   1  noname    0.361440


@<TRIPOS>BOND
    1      1      2    1
    2      1      3    1
    3      1      4    1
#
#	File Created by: Spartan'20 Export
#

@<TRIPOS>MOLECULE
M0355
3 2
SMALL
USER_CHARGES


@<TRIPOS>ATOM
    1   O1         0.000000000     0.000000000     0.382567479     O.3   1  noname   -0.820042
    2   H2         0.000000000    -0.753978527    -0.191283740       H   1  noname    0.410021
    3   H3         0.000000000     0.753978525    -0.191283739       H   1  noname    0.410021


@<TRIPOS>BOND
    1      1      2    1
    2      1      3    1
#
#	File Created by: Spartan'20 Export
#

@<TRIPOS>MOLECULE
M0356
5 4
SMALL
USER_CHARGES


@<TRIPOS>ATOM
    1   O1         0.000032988    -0.000000478     1.650018912     O.2   1  noname   -0.575793
    2   P2         0.000040845    -0.000000637     0.209944246       P   1  noname    0.920862
    3   Cl3        0.908551963     1.573848261    -0.619961446      Cl   1  noname   -0.114603
    4   Cl4       -1.817180008     0.000001666    -0.620041554      Cl   1  noname   -0.115865
    5   Cl5        0.908554211    -1.573848813    -0.619960158      Cl   1  noname   -0.114602


@<TRIPOS>BOND
    1      1      2    2
    2      2      3    1
    3      2      4    1
    4      2      5    1
#
#	File Created by: Spartan'20 Export
#

@<TRIPOS>MOLECULE
M0357
4 3
SMALL
USER_CHARGES


@<TRIPOS>ATOM
    1   O1        -1.447928520     0.000000280     0.397882453     O.2   1  noname   -0.387428
    2   S2        -0.338125363     0.000000224    -0.498389441       S   1  noname    0.613006
    3   Cl3        0.893026979    -1.550374003     0.050253234      Cl   1  noname   -0.112789
    4   Cl4        0.893026904     1.550373499     0.050253755      Cl   1  noname   -0.112788


@<TRIPOS>BOND
    1      1      2    2
    2      2      3    1
    3      2      4    1
#
#	File Created by: Spartan'20 Export
#

@<TRIPOS>MOLECULE
M0358
12 12
SMALL
USER_CHARGES


@<TRIPOS>ATOM
    1   C1        -0.000003193     0.000000000    -1.387461945     C.2   1  noname   -0.276606
    2   C2        -1.174847145     0.000000000    -0.661096019     C.2   1  noname    0.186024
    3   C3        -1.162456073     0.000000000     0.714336186     C.2   1  noname   -0.283262
    4   N4        -0.000003495     0.000000000     1.384390925       N   1  noname    0.605044
    5   O5         0.000002436     0.000000000     2.650345988       O   1  noname   -0.613973
    6   C6         1.162461239     0.000000000     0.714334166     C.2   1  noname   -0.283268
    7   C7         1.174842775     0.000000000    -0.661091866     C.2   1  noname    0.186026
    8   Cl8        2.701035481     0.000000000    -1.475075877      Cl   1  noname   -0.077833
    9   Cl9       -2.701051831     0.000000000    -1.475056985      Cl   1  noname   -0.077831
   10   H10        0.000015307     0.000000000    -2.458722782       H   1  noname    0.196704
   11   H11       -2.037559639     0.000000000     1.327547848       H   1  noname    0.219486
   12   H12        2.037564137     0.000000000     1.327550361       H   1  noname    0.219490


@<TRIPOS>BOND
    1      1      2    2
    2      2      3    1
    3      3      4    2
    4      4      5    1
    5      4      6    1
    6      6      7    2
    7      7      8    1
    8      2      9    1
    9      7      1    1
   10      1     10    1
   11      3     11    1
   12      6     12    1
#
#	File Created by: Spartan'20 Export
#

@<TRIPOS>MOLECULE
M0359
11 11
SMALL
USER_CHARGES


@<TRIPOS>ATOM
    1   C1        -0.000062786     0.000000000    -1.134831975     C.2   1  noname    0.070290
    2   C2        -1.178932792     0.000000000    -0.416235655     C.2   1  noname   -0.141677
    3   C3        -1.135586105     0.000000000     0.967363774     C.2   1  noname    0.339718
    4   N4         0.000080325     0.000000000     1.635270716     N.2   1  noname   -0.592588
    5   C5         1.135679038     0.000000000     0.967491199     C.2   1  noname    0.338772
    6   C6         1.178867442     0.000000000    -0.416099848     C.2   1  noname   -0.140728
    7   Cl7        2.706774863     0.000000000    -1.238153322      Cl   1  noname   -0.091964
    8   Cl8       -2.706889780     0.000000000    -1.238176346      Cl   1  noname   -0.091760
    9   H9        -0.000014650     0.000000000    -2.207751602       H   1  noname    0.145381
   10   H10       -2.044171497     0.000000000     1.540512139       H   1  noname    0.082154
   11   H11        2.044255943     0.000000000     1.540610920       H   1  noname    0.082402


@<TRIPOS>BOND
    1      1      2    2
    2      2      3    1
    3      3      4    2
    4      4      5    1
    5      5      6    2
    6      6      7    1
    7      2      8    1
    8      6      1    1
    9      1      9    1
   10      3     10    1
   11      5     11    1
#
#	File Created by: Spartan'20 Export
#

@<TRIPOS>MOLECULE
M0360
10 10
SMALL
USER_CHARGES


@<TRIPOS>ATOM
    1   C1        -1.179052496     0.000000000     0.321667459     C.2   1  noname    0.640833
    2   C2         0.000013410     0.000000000     1.042775996     C.2   1  noname   -0.539516
    3   C3         1.179088894     0.000000000     0.321671350     C.2   1  noname    0.640800
    4   N4         1.177368935     0.000000000    -0.997183768     N.2   1  noname   -0.793751
    5   C5         0.000007940     0.000000000    -1.589530428     C.2   1  noname    0.775110
    6   N6        -1.177372903     0.000000000    -0.997172462     N.2   1  noname   -0.793752
    7   Br7       -0.000128245     0.000000000     2.932582576      Br   1  noname   -0.010515
    8   H8        -2.134282326     0.000000000     0.814534209       H   1  noname    0.030861
    9   H9         2.134356127     0.000000000     0.814477837       H   1  noname    0.030879
   10   H10        0.000000664     0.000000000    -2.663822769       H   1  noname    0.019051


@<TRIPOS>BOND
    1      1      2    2
    2      2      3    1
    3      3      4    2
    4      4      5    1
    5      5      6    2
    6      2      7    1
    7      6      1    1
    8      1      8    1
    9      3      9    1
   10      5     10    1
#
#	File Created by: Spartan'20 Export
#

@<TRIPOS>MOLECULE
M0361
14 14
SMALL
USER_CHARGES


@<TRIPOS>ATOM
    1   C1         0.570761066     1.576044500    -0.181148285     C.2   1  noname   -0.068048
    2   C2        -0.702412321     1.041716067    -0.137136628     C.2   1  noname   -0.435495
    3   C3        -0.880349463    -0.334291187    -0.012641865     C.2   1  noname    0.602213
    4   C4         0.241786102    -1.155672458     0.063808518     C.2   1  noname   -0.434239
    5   C5         1.502113141    -0.593333021     0.017614976     C.2   1  noname    0.172868
    6   C6         1.694962582     0.769089034    -0.103448983     C.2   1  noname   -0.260971
    7   Cl7        2.891274446    -1.645114850     0.118985675      Cl   1  noname   -0.124842
    8   N8        -2.156935497    -0.889753958    -0.016463432     N.3   1  noname   -0.968198
    9   H9         0.692096207     2.640470215    -0.276631723       H   1  noname    0.157897
   10   H10       -1.561347937     1.686153763    -0.205686990       H   1  noname    0.201057
   11   H11        0.131381547    -2.220822253     0.151270652       H   1  noname    0.207775
   12   H12        2.684490047     1.181978543    -0.135778049       H   1  noname    0.169465
   13   H13       -2.228090770    -1.780795795     0.425731131       H   1  noname    0.391261
   14   H14       -2.879729149    -0.275668600     0.291525003       H   1  noname    0.389258


@<TRIPOS>BOND
    1      1      2    2
    2      2      3    1
    3      3      4    2
    4      4      5    1
    5      5      6    2
    6      5      7    1
    7      3      8    1
    8      6      1    1
    9      1      9    1
   10      2     10    1
   11      4     11    1
   12      6     12    1
   13      8     13    1
   14      8     14    1
#
#	File Created by: Spartan'20 Export
#

@<TRIPOS>MOLECULE
M0362
13 13
SMALL
USER_CHARGES


@<TRIPOS>ATOM
    1   C1        -1.204522724     0.000000000     0.407202673     C.2   1  noname   -0.172721
    2   C2        -1.206816676     0.000000000    -0.974805932     C.2   1  noname   -0.176351
    3   C3         0.000051990     0.000000000    -1.652885602     C.2   1  noname    0.172761
    4   C4         1.206903947     0.000000000    -0.974957874     C.2   1  noname   -0.176345
    5   C5         1.204600410     0.000000000     0.407048988     C.2   1  noname   -0.172720
    6   C6         0.000025689     0.000000000     1.100236942     C.2   1  noname    0.106314
    7   C7        -0.000076673     0.000000000     2.544323652     C.1   1  noname    0.256532
    8   N8        -0.000313642     0.000000000     3.680587595     N.1   1  noname   -0.410472
    9   Cl9       -0.000053770     0.000000000    -3.390597076      Cl   1  noname   -0.120338
   10   H10       -2.133250945     0.000000000     0.946394215       H   1  noname    0.181673
   11   H11       -2.131357945     0.000000000    -1.519275854       H   1  noname    0.164998
   12   H12        2.131415384     0.000000000    -1.519441248       H   1  noname    0.165015
   13   H13        2.133394956     0.000000000     0.946169521       H   1  noname    0.181653


@<TRIPOS>BOND
    1      1      2    2
    2      2      3    1
    3      3      4    2
    4      4      5    1
    5      5      6    2
    6      6      7    1
    7      7      8    3
    8      3      9    1
    9      6      1    1
   10      1     10    1
   11      2     11    1
   12      4     12    1
   13      5     13    1
#
#	File Created by: Spartan'20 Export
#

@<TRIPOS>MOLECULE
M0363
14 14
SMALL
USER_CHARGES


@<TRIPOS>ATOM
    1   C1        -1.188726313     0.000000000     0.294179543     C.2   1  noname   -0.124582
    2   C2        -1.283916324     0.000000000    -1.082247693     C.2   1  noname   -0.195243
    3   C3        -0.120765843     0.000000000    -1.838952109     C.2   1  noname    0.171710
    4   C4         1.127313680     0.000000000    -1.245705902     C.2   1  noname   -0.151899
    5   C5         1.207962538     0.000000000     0.136970261     C.2   1  noname   -0.226333
    6   C6         0.058114158     0.000000000     0.911812742     C.2   1  noname    0.050839
    7   C7         0.159268305     0.000000000     2.391896048     C.2   1  noname    0.375082
    8   O8        -0.775676620     0.000000000     3.127696354     O.2   1  noname   -0.465907
    9   Cl9       -0.237815611     0.000000000    -3.574598623      Cl   1  noname   -0.127728
   10   H10       -2.073400372     0.000000000     0.902497091       H   1  noname    0.165237
   11   H11       -2.240335359     0.000000000    -1.569007818       H   1  noname    0.163508
   12   H12        2.013305885     0.000000000    -1.850973421       H   1  noname    0.155741
   13   H13        2.175236345     0.000000000     0.608899252       H   1  noname    0.163550
   14   H14        1.179435531     0.000000000     2.787534274       H   1  noname    0.046027


@<TRIPOS>BOND
    1      1      2    2
    2      2      3    1
    3      3      4    2
    4      4      5    1
    5      5      6    2
    6      6      7    1
    7      7      8    2
    8      3      9    1
    9      6      1    1
   10      1     10    1
   11      2     11    1
   12      4     12    1
   13      5     13    1
   14      7     14    1
#
#	File Created by: Spartan'20 Export
#

@<TRIPOS>MOLECULE
M0364
13 13
SMALL
USER_CHARGES


@<TRIPOS>ATOM
    1   C1        -1.266318832     0.000000000    -0.429041126     C.2   1  noname   -0.257388
    2   C2        -1.245275755     0.000000000     0.951777139     C.2   1  noname   -0.286933
    3   C3        -0.030936280     0.000000000     1.607996357     C.2   1  noname    0.367729
    4   C4         1.157776207     0.000000000     0.919848830     C.2   1  noname   -0.233974
    5   C5         1.133346476     0.000000000    -0.467586789     C.2   1  noname   -0.367712
    6   C6        -0.075243516     0.000000000    -1.142865999     C.2   1  noname    0.447972
    7   O7        -0.158851083     0.000000000    -2.494627137     O.3   1  noname   -0.651377
    8   F8        -0.013785879     0.000000000     2.941651473       F   1  noname   -0.242814
    9   H9        -2.195577580     0.000000000    -0.966964837       H   1  noname    0.200465
   10   H10       -2.155593310     0.000000000     1.521473208       H   1  noname    0.197622
   11   H11        2.086556444     0.000000000     1.458669119       H   1  noname    0.189861
   12   H12        2.060013484     0.000000000    -1.015793330       H   1  noname    0.186451
   13   H13        0.703889622     0.000000000    -2.884536908       H   1  noname    0.450097


@<TRIPOS>BOND
    1      1      2    2
    2      2      3    1
    3      3      4    2
    4      4      5    1
    5      5      6    2
    6      6      7    1
    7      3      8    1
    8      6      1    1
    9      1      9    1
   10      2     10    1
   11      4     11    1
   12      5     12    1
   13      7     13    1
#
#	File Created by: Spartan'20 Export
#

@<TRIPOS>MOLECULE
M0365
24 25
SMALL
USER_CHARGES


@<TRIPOS>ATOM
    1   C1        -0.633587087     1.974595883    -1.064174879     C.2   1  noname   -0.149268
    2   C2         0.232540816     3.048026020    -1.181975088     C.2   1  noname   -0.184880
    3   C3         0.903614782     3.503667100    -0.061052396     C.2   1  noname    0.144604
    4   C4         0.717356501     2.915088402     1.177568834     C.2   1  noname   -0.120278
    5   C5        -0.153499916     1.845650873     1.290263184     C.2   1  noname   -0.269888
    6   C6        -0.810769709     1.369494959     0.168020402     C.2   1  noname    0.159418
    7   S7        -1.962864216    -0.000236093     0.311281734       S   1  noname    0.292864
    8   O8        -2.760860697     0.001020423    -0.941381547     O.2   1  noname   -0.506938
    9   C9        -0.810353479    -1.369522557     0.162694672     C.2   1  noname    0.155366
   10   C10       -0.659214754    -1.990577338    -1.064639872     C.2   1  noname   -0.131924
   11   C11        0.205895211    -3.064704894    -1.186791251     C.2   1  noname   -0.196298
   12   C12        0.901863261    -3.504391065    -0.074920346     C.2   1  noname    0.141868
   13   C13        0.742057314    -2.899194428     1.159618722     C.2   1  noname   -0.107016
   14   C14       -0.127397020    -1.829604793     1.276816007     C.2   1  noname   -0.281750
   15   Cl15       1.989413672    -4.854364123    -0.226191869      Cl   1  noname   -0.128679
   16   Cl16       1.992459511     4.853259552    -0.206949469      Cl   1  noname   -0.128737
   17   H17       -1.182248164     1.614352455    -1.912958463       H   1  noname    0.167689
   18   H18        0.381784817     3.527710108    -2.130364133       H   1  noname    0.168757
   19   H19        1.235127486     3.292972007     2.038066191       H   1  noname    0.155434
   20   H20       -0.318831462     1.397868308     2.253930521       H   1  noname    0.164939
   21   H21       -1.226265516    -1.641745279    -1.906021823       H   1  noname    0.163659
   22   H22        0.335082616    -3.556833567    -2.131810328       H   1  noname    0.170926
   23   H23        1.279573014    -3.264447477     2.013426918       H   1  noname    0.151721
   24   H24       -0.270876981    -1.368084476     2.237544277       H   1  noname    0.168410


@<TRIPOS>BOND
    1      1      2    2
    2      2      3    1
    3      3      4    2
    4      4      5    1
    5      5      6    2
    6      6      7    1
    7      7      8    2
    8      7      9    1
    9      9     10    2
   10     10     11    1
   11     11     12    2
   12     12     13    1
   13     13     14    2
   14     12     15    1
   15      3     16    1
   16      6      1    1
   17     14      9    1
   18      1     17    1
   19      2     18    1
   20      4     19    1
   21      5     20    1
   22     10     21    1
   23     11     22    1
   24     13     23    1
   25     14     24    1
#
#	File Created by: Spartan'20 Export
#

@<TRIPOS>MOLECULE
M0366
11 11
SMALL
USER_CHARGES


@<TRIPOS>ATOM
    1   C1         0.948713794     0.000000000     0.933267584     C.2   1  noname   -0.542706
    2   C2         1.067698942     0.000000000    -0.445115059     C.2   1  noname    0.279230
    3   C3        -0.093859019     0.000000000    -1.192319130     C.2   1  noname   -0.341888
    4   C4        -1.318931287     0.000000000    -0.546612250     C.2   1  noname    0.496664
    5   N5        -1.426206077     0.000000000     0.767149194     N.2   1  noname   -0.670809
    6   C6        -0.319595119     0.000000000     1.487529955     C.2   1  noname    0.463705
    7   Br7       -0.026125722     0.000000000    -3.088741579      Br   1  noname   -0.045822
    8   H8         1.819622911     0.000000000     1.561882532       H   1  noname    0.201147
    9   H9         2.029712545     0.000000000    -0.921882016       H   1  noname    0.080109
   10   H10       -2.233323516     0.000000000    -1.110464374       H   1  noname    0.032096
   11   H11       -0.447707453     0.000000000     2.555305143       H   1  noname    0.048274


@<TRIPOS>BOND
    1      1      2    2
    2      2      3    1
    3      3      4    2
    4      4      5    1
    5      5      6    2
    6      3      7    1
    7      6      1    1
    8      1      8    1
    9      2      9    1
   10      4     10    1
   11      6     11    1
#
#	File Created by: Spartan'20 Export
#

@<TRIPOS>MOLECULE
M0367
12 12
SMALL
USER_CHARGES


@<TRIPOS>ATOM
    1   C1         0.975742519     0.000000000    -1.192976720     C.2   1  noname   -0.524106
    2   C2         1.067316330     0.000000000     0.183911116     C.2   1  noname    0.170243
    3   C3        -0.110094828     0.000000000     0.921505553     C.2   1  noname   -0.211253
    4   C4        -1.323275769     0.000000000     0.241704022     C.2   1  noname    0.373512
    5   N5        -1.409031136     0.000000000    -1.071661790     N.2   1  noname   -0.652168
    6   C6        -0.285875043     0.000000000    -1.767466887     C.2   1  noname    0.491903
    7   C7        -0.084855214     0.000000000     2.362920314     C.1   1  noname    0.284584
    8   N8        -0.062685637     0.000000000     3.498762019     N.1   1  noname   -0.411764
    9   H9         1.854801943     0.000000000    -1.809103646       H   1  noname    0.204165
   10   H10        2.019791200     0.000000000     0.680551337       H   1  noname    0.131884
   11   H11       -2.248290558     0.000000000     0.789228018       H   1  noname    0.091514
   12   H12       -0.393543809     0.000000000    -2.837373336       H   1  noname    0.051487


@<TRIPOS>BOND
    1      1      2    2
    2      2      3    1
    3      3      4    2
    4      4      5    1
    5      5      6    2
    6      3      7    1
    7      7      8    3
    8      6      1    1
    9      1      9    1
   10      2     10    1
   11      4     11    1
   12      6     12    1
#
#	File Created by: Spartan'20 Export
#

@<TRIPOS>MOLECULE
M0368
11 11
SMALL
USER_CHARGES


@<TRIPOS>ATOM
    1   C1         0.948938999     0.000000000    -0.919150756     C.2   1  noname   -0.500608
    2   C2         1.067526756     0.000000000     0.459003779     C.2   1  noname    0.158655
    3   C3        -0.093456765     0.000000000     1.206158365     C.2   1  noname   -0.155201
    4   C4        -1.317859514     0.000000000     0.559865712     C.2   1  noname    0.378462
    5   N5        -1.425473939     0.000000000    -0.753451683     N.2   1  noname   -0.638840
    6   C6        -0.319021991     0.000000000    -1.474166422     C.2   1  noname    0.437675
    7   Cl7       -0.031262305     0.000000000     2.943673959      Cl   1  noname   -0.114540
    8   H8         1.820025130     0.000000000    -1.547448978       H   1  noname    0.198392
    9   H9         2.027781617     0.000000000     0.939869420       H   1  noname    0.116283
   10   H10       -2.230255326     0.000000000     1.127562605       H   1  noname    0.067783
   11   H11       -0.446942661     0.000000000    -2.541916001       H   1  noname    0.051939


@<TRIPOS>BOND
    1      1      2    2
    2      2      3    1
    3      3      4    2
    4      4      5    1
    5      5      6    2
    6      3      7    1
    7      6      1    1
    8      1      8    1
    9      2      9    1
   10      4     10    1
   11      6     11    1
#
#	File Created by: Spartan'20 Export
#

@<TRIPOS>MOLECULE
M0369
11 11
SMALL
USER_CHARGES


@<TRIPOS>ATOM
    1   C1         0.945690097     0.000000000     0.886251027     C.2   1  noname   -0.437786
    2   C2         1.074056763     0.000000000    -0.491622494     C.2   1  noname    0.010919
    3   C3        -0.086056375     0.000000000    -1.229722969     C.2   1  noname    0.113034
    4   C4        -1.315414764     0.000000000    -0.604303944     C.2   1  noname    0.245540
    5   N5        -1.428176191     0.000000000     0.708978154     N.2   1  noname   -0.598539
    6   C6        -0.325509117     0.000000000     1.436120298     C.2   1  noname    0.379269
    7   F7        -0.032162883     0.000000000    -2.557102881       F   1  noname   -0.211613
    8   H8         1.812675238     0.000000000     1.520272166       H   1  noname    0.193285
    9   H9         2.029839649     0.000000000    -0.981991929       H   1  noname    0.149903
   10   H10       -2.216886862     0.000000000    -1.189986377       H   1  noname    0.097926
   11   H11       -0.458055555     0.000000000     2.503108949       H   1  noname    0.058061


@<TRIPOS>BOND
    1      1      2    2
    2      2      3    1
    3      3      4    2
    4      4      5    1
    5      5      6    2
    6      3      7    1
    7      6      1    1
    8      1      8    1
    9      2      9    1
   10      4     10    1
   11      6     11    1
#
#	File Created by: Spartan'20 Export
#

@<TRIPOS>MOLECULE
M0370
11 11
SMALL
USER_CHARGES


@<TRIPOS>ATOM
    1   C1         0.949342111     0.000000000     0.950393865     C.2   1  noname   -0.562071
    2   C2         1.065084252     0.000000000    -0.428397766     C.2   1  noname    0.330088
    3   C3        -0.096016313     0.000000000    -1.180597412     C.2   1  noname   -0.446898
    4   C4        -1.318999120     0.000000000    -0.526348209     C.2   1  noname    0.542694
    5   N5        -1.425336194     0.000000000     0.787861113     N.2   1  noname   -0.686535
    6   C6        -0.317812617     0.000000000     1.506463699     C.2   1  noname    0.479041
    7   I7        -0.025172755     0.000000000    -3.279718463       I   1  noname    0.018481
    8   H8         1.821541976     0.000000000     1.577416562       H   1  noname    0.200392
    9   H9         2.030039510     0.000000000    -0.899284718       H   1  noname    0.062878
   10   H10       -2.238178364     0.000000000    -1.082331436       H   1  noname    0.016713
   11   H11       -0.444492488     0.000000000     2.574542765       H   1  noname    0.045217


@<TRIPOS>BOND
    1      1      2    2
    2      2      3    1
    3      3      4    2
    4      4      5    1
    5      5      6    2
    6      3      7    1
    7      6      1    1
    8      1      8    1
    9      2      9    1
   10      4     10    1
   11      6     11    1
#
#	File Created by: Spartan'20 Export
#

@<TRIPOS>MOLECULE
M0371
13 13
SMALL
USER_CHARGES


@<TRIPOS>ATOM
    1   C1        -1.506809065     0.676780447    -0.182643884     C.2   1  noname   -0.429242
    2   C2        -0.171467835     1.005374544    -0.319698568     C.2   1  noname   -0.042404
    3   C3         0.791534081     0.063928881     0.014790951     C.2   1  noname    0.195904
    4   C4         0.338950090    -1.169918608     0.477465807     C.2   1  noname    0.196301
    5   N5        -0.932361046    -1.481900956     0.607448251     N.2   1  noname   -0.595070
    6   C6        -1.842672464    -0.580781115     0.285329111     C.2   1  noname    0.350625
    7   N7         2.157635092     0.349601825    -0.051328716     N.3   1  noname   -0.909044
    8   H8        -2.273940950     1.385734888    -0.435185065       H   1  noname    0.186507
    9   H9         0.121249644     1.978429934    -0.675171048       H   1  noname    0.142691
   10   H10        1.050877643    -1.930026387     0.754573702       H   1  noname    0.093736
   11   H11       -2.871272474    -0.870743029     0.403629767       H   1  noname    0.053336
   12   H12        2.738703759    -0.456865490    -0.139850247       H   1  noname    0.373405
   13   H13        2.399573525     1.030385064    -0.739360063       H   1  noname    0.383256


@<TRIPOS>BOND
    1      1      2    2
    2      2      3    1
    3      3      4    2
    4      4      5    1
    5      5      6    2
    6      3      7    1
    7      6      1    1
    8      1      8    1
    9      2      9    1
   10      4     10    1
   11      6     11    1
   12      7     12    1
   13      7     13    1
#
#	File Created by: Spartan'20 Export
#

@<TRIPOS>MOLECULE
M0372
11 11
SMALL
USER_CHARGES


@<TRIPOS>ATOM
    1   C1         0.000022254     0.000000000     1.196149490     C.2   1  noname    0.272181
    2   C2        -1.198713475     0.000000000     0.504405287     C.2   1  noname   -0.692424
    3   C3        -1.108744037     0.000000000    -0.872187319     C.2   1  noname    0.860627
    4   N4        -0.000028656     0.000000000    -1.556761191     N.2   1  noname   -0.714874
    5   C5         1.108728782     0.000000000    -0.872144641     C.2   1  noname    0.860582
    6   C6         1.198742060     0.000000000     0.504443229     C.2   1  noname   -0.692388
    7   F7         2.218172589     0.000000000    -1.576462877       F   1  noname   -0.261385
    8   F8        -2.218206554     0.000000000    -1.576471616       F   1  noname   -0.261392
    9   H9         0.000002909     0.000000000     2.270961450       H   1  noname    0.125070
   10   H10       -2.154888641     0.000000000     0.989015559       H   1  noname    0.251998
   11   H11        2.154912768     0.000000000     0.989052629       H   1  noname    0.252004


@<TRIPOS>BOND
    1      1      2    2
    2      2      3    1
    3      3      4    2
    4      4      5    1
    5      5      6    2
    6      5      7    1
    7      3      8    1
    8      6      1    1
    9      1      9    1
   10      2     10    1
   11      6     11    1
#
#	File Created by: Spartan'20 Export
#

@<TRIPOS>MOLECULE
M0373
22 24
SMALL
USER_CHARGES


@<TRIPOS>ATOM
    1   C1        -0.355094170     0.000000000    -3.373763016     C.2   1  noname   -0.406945
    2   C2         0.844734223     0.000000000    -2.720693794     C.2   1  noname    0.014211
    3   C3         0.867564314     0.000000000    -1.316343057     C.2   1  noname   -0.161439
    4   C4         2.092915459     0.000000000    -0.558413744     C.2   1  noname   -0.107518
    5   C5         2.078582896     0.000000000     0.782359855     C.2   1  noname   -0.492901
    6   C6         0.831599929     0.000000000     1.505601150     C.2   1  noname    0.816593
    7   C7        -0.377610987     0.000000000     0.802997856     C.2   1  noname   -0.552983
    8   C8        -0.362681120     0.000000000    -0.648124821     C.2   1  noname    0.636471
    9   N9        -1.534873633     0.000000000    -1.300277080     N.2   1  noname   -0.634399
   10   C10       -1.526441947     0.000000000    -2.602356154     C.2   1  noname    0.330213
   11   C11       -1.568917462     0.000000000     1.548485790     C.2   1  noname    0.280329
   12   C12       -1.495926392     0.000000000     2.911914251     C.2   1  noname   -0.564795
   13   C13       -0.227323241     0.000000000     3.513611164     C.2   1  noname    0.463797
   14   N14        0.891279647     0.000000000     2.848241391     N.2   1  noname   -0.742409
   15   H15       -0.414230911     0.000000000    -4.446052982       H   1  noname    0.181913
   16   H16        1.771157058     0.000000000    -3.267875613       H   1  noname    0.135864
   17   H17        3.025068001     0.000000000    -1.095411767       H   1  noname    0.161082
   18   H18        2.982665964     0.000000000     1.361092396       H   1  noname    0.223452
   19   H19       -2.487341550     0.000000000    -3.087565137       H   1  noname    0.076436
   20   H20       -2.509877846     0.000000000     1.033858498       H   1  noname    0.086848
   21   H21       -2.380245930     0.000000000     3.521506474       H   1  noname    0.200772
   22   H22       -0.145002303     0.000000000     4.587208339       H   1  noname    0.055407


@<TRIPOS>BOND
    1      1      2    2
    2      2      3    1
    3      3      4    2
    4      4      5    1
    5      5      6    2
    6      6      7    1
    7      7      8    2
    8      8      9    1
    9      9     10    2
   10      7     11    1
   11     11     12    2
   12     12     13    1
   13     13     14    2
   14     10      1    1
   15      8      3    1
   16     14      6    1
   17      1     15    1
   18      2     16    1
   19      4     17    1
   20      5     18    1
   21     10     19    1
   22     11     20    1
   23     12     21    1
   24     13     22    1
#
#	File Created by: Spartan'20 Export
#

@<TRIPOS>MOLECULE
M0374
26 29
SMALL
USER_CHARGES


@<TRIPOS>ATOM
    1   C1         0.000385849     0.000000000    -3.500416852     C.2   1  noname    0.028192
    2   C2        -1.201008582     0.000000000    -2.813469641     C.2   1  noname   -0.416456
    3   C3        -1.221746179     0.000000000    -1.422150546     C.2   1  noname    0.300475
    4   C4        -2.456418876     0.000000000    -0.669088248     C.2   1  noname   -0.277676
    5   C5        -2.456564608     0.000000000     0.669892378     C.2   1  noname   -0.277757
    6   C6        -1.221973996     0.000000000     1.422701328     C.2   1  noname    0.300390
    7   C7        -1.201619776     0.000000000     2.813959623     C.2   1  noname   -0.416198
    8   C8        -0.000407189     0.000000000     3.500578165     C.2   1  noname    0.028104
    9   C9         1.200934219     0.000000000     2.813586193     C.2   1  noname   -0.416282
   10   C10        1.221726987     0.000000000     1.422200107     C.2   1  noname    0.300165
   11   C11       -0.000046604     0.000000000     0.716365764     C.2   1  noname   -0.092506
   12   C12        0.000076311     0.000000000    -0.716258734     C.2   1  noname   -0.092929
   13   C13        1.222026410     0.000000000    -1.422677214     C.2   1  noname    0.300700
   14   C14        1.201671032     0.000000000    -2.813888200     C.2   1  noname   -0.416377
   15   C15        2.456630463     0.000000000    -0.670088344     C.2   1  noname   -0.277895
   16   C16        2.456392294     0.000000000     0.668921878     C.2   1  noname   -0.277554
   17   H17        0.000259121     0.000000000    -4.575741224       H   1  noname    0.124107
   18   H18       -2.130070458     0.000000000    -3.356133609       H   1  noname    0.190438
   19   H19       -3.384038423     0.000000000    -1.214094110       H   1  noname    0.173348
   20   H20       -3.384226257     0.000000000     1.214764976       H   1  noname    0.173423
   21   H21       -2.130650791     0.000000000     3.356608673       H   1  noname    0.190464
   22   H22       -0.000302901     0.000000000     4.575891645       H   1  noname    0.124138
   23   H23        2.130033658     0.000000000     3.356183950       H   1  noname    0.190398
   24   H24        2.130645286     0.000000000    -3.356622293       H   1  noname    0.190507
   25   H25        3.384276834     0.000000000    -1.214963919       H   1  noname    0.173481
   26   H26        3.384016176     0.000000000     1.213938251       H   1  noname    0.173301


@<TRIPOS>BOND
    1      1      2    2
    2      2      3    1
    3      3      4    2
    4      4      5    1
    5      5      6    2
    6      6      7    1
    7      7      8    2
    8      8      9    1
    9      9     10    2
   10     10     11    1
   11     11     12    2
   12     12     13    1
   13     13     14    2
   14     13     15    1
   15     15     16    2
   16     14      1    1
   17     12      3    1
   18     11      6    1
   19     16     10    1
   20      1     17    1
   21      2     18    1
   22      4     19    1
   23      5     20    1
   24      7     21    1
   25      8     22    1
   26      9     23    1
   27     14     24    1
   28     15     25    1
   29     16     26    1
#
#	File Created by: Spartan'20 Export
#

@<TRIPOS>MOLECULE
M0375
10 10
SMALL
USER_CHARGES


@<TRIPOS>ATOM
    1   C1         0.712998133     0.000000000     0.950081615     C.2   1  noname   -0.195754
    2   C2        -0.712997318     0.000000000     0.950082848     C.2   1  noname   -0.195763
    3   C3        -1.112663218     0.000000000    -0.347973494     C.2   1  noname   -0.202291
    4   N4         0.000003812     0.000000000    -1.135023422   N.pl3   1  noname   -0.185591
    5   C5         1.112674592     0.000000000    -0.347974643     C.2   1  noname   -0.202299
    6   H6         1.355618644     0.000000000     1.807008913       H   1  noname    0.157178
    7   H7        -1.355631262     0.000000000     1.807003245       H   1  noname    0.157180
    8   H8        -2.092543776     0.000000000    -0.777843292       H   1  noname    0.178806
    9   H9        -0.000018117     0.000000000    -2.127519187       H   1  noname    0.309724
   10   H10        2.092558511     0.000000000    -0.777842585       H   1  noname    0.178809


@<TRIPOS>BOND
    1      1      2    1
    2      2      3    2
    3      3      4    1
    4      4      5    1
    5      5      1    2
    6      1      6    1
    7      2      7    1
    8      3      8    1
    9      4      9    1
   10      5     10    1
#
#	File Created by: Spartan'20 Export
#

@<TRIPOS>MOLECULE
M0376
18 18
SMALL
USER_CHARGES


@<TRIPOS>ATOM
    1   C1        -0.055876182     0.000000000    -2.927985627     C.2   1  noname   -0.139510
    2   C2         1.106403088     0.000000000    -2.168027235     C.2   1  noname   -0.106227
    3   C3         1.036054284     0.000000000    -0.789672832     C.2   1  noname   -0.253118
    4   C4        -0.199796883     0.000000000    -0.139475299     C.2   1  noname    0.274167
    5   C5        -1.355782991     0.000000000    -0.914872489     C.2   1  noname   -0.266569
    6   C6        -1.287417589     0.000000000    -2.298360871     C.2   1  noname   -0.090027
    7   C7        -0.339218811     0.000000000     1.325833187     C.2   1  noname   -0.167262
    8   C8         0.624809863     0.000000000     2.242134154     C.2   1  noname   -0.354945
    9   C9         0.295943142     0.000000000     3.683449489     C.2   1  noname    0.548327
   10   O10       -0.809822695     0.000000000     4.132419394     O.2   1  noname   -0.518170
   11   H11        0.002660523     0.000000000    -4.001773714       H   1  noname    0.137172
   12   H12        2.066022729     0.000000000    -2.653330278       H   1  noname    0.133114
   13   H13        1.946220943     0.000000000    -0.218948542       H   1  noname    0.168841
   14   H14       -2.316397515     0.000000000    -0.430243053       H   1  noname    0.157716
   15   H15       -2.192467493     0.000000000    -2.878889365       H   1  noname    0.132866
   16   H16       -1.350936885     0.000000000     1.695020146       H   1  noname    0.186440
   17   H17        1.669746349     0.000000000     1.987202060       H   1  noname    0.154190
   18   H18        1.159856123     0.000000000     4.355520875       H   1  noname    0.002997


@<TRIPOS>BOND
    1      1      2    2
    2      2      3    1
    3      3      4    2
    4      4      5    1
    5      5      6    2
    6      4      7    1
    7      7      8    2
    8      8      9    1
    9      9     10    2
   10      6      1    1
   11      1     11    1
   12      2     12    1
   13      3     13    1
   14      5     14    1
   15      6     15    1
   16      7     16    1
   17      8     17    1
   18      9     18    1
#
#	File Created by: Spartan'20 Export
#

@<TRIPOS>MOLECULE
M0377
25 26
SMALL
USER_CHARGES


@<TRIPOS>ATOM
    1   C1        -0.199254721     0.016763906     4.591816330     C.2   1  noname   -0.143729
    2   C2         1.000972499    -0.417239368     4.058109221     C.2   1  noname   -0.081335
    3   C3         1.167786233    -0.457507011     2.682625985     C.2   1  noname   -0.271974
    4   C4         0.140235310    -0.064999265     1.834435961     C.2   1  noname    0.157625
    5   C5        -1.066457651     0.371478433     2.380248422     C.2   1  noname   -0.149733
    6   C6        -1.232500655     0.411851649     3.749705597     C.2   1  noname   -0.126491
    7   C7         0.348809890    -0.122928329     0.373314408     C.2   1  noname    0.175631
    8   N8        -0.523534395     0.239171117    -0.453595905     N.2   1  noname   -0.564534
    9   C9        -0.271729631     0.127781730    -1.834321408     C.2   1  noname    0.571394
   10   C10        0.297713662    -1.002575013    -2.411794734     C.2   1  noname   -0.390394
   11   C11        0.502083821    -1.057348860    -3.782234250     C.2   1  noname   -0.060678
   12   C12        0.142319828     0.007830114    -4.588900376     C.2   1  noname   -0.227213
   13   C13       -0.442279161     1.129229705    -4.016401232     C.2   1  noname   -0.029366
   14   C14       -0.661141611     1.184848121    -2.652871319     C.2   1  noname   -0.395173
   15   H15       -0.333667239     0.049018483     5.658233917       H   1  noname    0.135491
   16   H16        1.802518008    -0.722315449     4.705701312       H   1  noname    0.126995
   17   H17        2.102735044    -0.795921177     2.268871794       H   1  noname    0.152884
   18   H18       -1.857422918     0.671705127     1.720361781       H   1  noname    0.136012
   19   H19       -2.164965941     0.748557410     4.166132545       H   1  noname    0.135019
   20   H20        1.318882467    -0.492971567     0.054413213       H   1  noname    0.072172
   21   H21        0.551047049    -1.847886493    -1.797439719       H   1  noname    0.181381
   22   H22        0.936155340    -1.939819273    -4.217449453       H   1  noname    0.133439
   23   H23        0.301797990    -0.038175075    -5.651018732       H   1  noname    0.145783
   24   H24       -0.734732555     1.958091561    -4.635384417       H   1  noname    0.125891
   25   H25       -1.125370661     2.043359523    -2.202558941       H   1  noname    0.190902


@<TRIPOS>BOND
    1      1      2    2
    2      2      3    1
    3      3      4    2
    4      4      5    1
    5      5      6    2
    6      4      7    1
    7      7      8    2
    8      8      9    1
    9      9     10    2
   10     10     11    1
   11     11     12    2
   12     12     13    1
   13     13     14    2
   14      6      1    1
   15     14      9    1
   16      1     15    1
   17      2     16    1
   18      3     17    1
   19      5     18    1
   20      6     19    1
   21      7     20    1
   22     10     21    1
   23     11     22    1
   24     12     23    1
   25     13     24    1
   26     14     25    1
#
#	File Created by: Spartan'20 Export
#

@<TRIPOS>MOLECULE
M0378
13 13
SMALL
USER_CHARGES


@<TRIPOS>ATOM
    1   C1        -0.000016272     0.000000000    -1.715969807     C.2   1  noname   -0.096625
    2   C2        -1.202648656     0.000000000    -1.026075182     C.2   1  noname   -0.129060
    3   C3        -1.207056052     0.000000000     0.357002117     C.2   1  noname   -0.186716
    4   C4         0.000004264     0.000000000     1.047311261     C.2   1  noname    0.132652
    5   C5         1.207052407     0.000000000     0.357045145     C.2   1  noname   -0.186705
    6   C6         1.202626790     0.000000000    -1.026031290     C.2   1  noname   -0.129075
    7   C7         0.000012592     0.000000000     2.492514492     C.1   1  noname    0.244656
    8   N8         0.000056677     0.000000000     3.628833548     N.1   1  noname   -0.414507
    9   H9        -0.000001932     0.000000000    -2.790994781       H   1  noname    0.136306
   10   H10       -2.133441603     0.000000000    -1.562986959       H   1  noname    0.142826
   11   H11       -2.133111138     0.000000000     0.901122158       H   1  noname    0.171710
   12   H12        2.133097526     0.000000000     0.901172450       H   1  noname    0.171715
   13   H13        2.133425397     0.000000000    -1.562943151       H   1  noname    0.142823


@<TRIPOS>BOND
    1      1      2    2
    2      2      3    1
    3      3      4    2
    4      4      5    1
    5      5      6    2
    6      4      7    1
    7      7      8    3
    8      6      1    1
    9      1      9    1
   10      2     10    1
   11      3     11    1
   12      5     12    1
   13      6     13    1
#
#	File Created by: Spartan'20 Export
#

@<TRIPOS>MOLECULE
M0379
16 16
SMALL
USER_CHARGES


@<TRIPOS>ATOM
    1   C1        -2.288631247     0.075158607    -0.465002690     C.2   1  noname   -0.096193
    2   C2        -1.439533181     1.161388425    -0.598713641     C.2   1  noname   -0.167484
    3   C3        -0.105423201     1.043802530    -0.245342857     C.2   1  noname   -0.138701
    4   C4         0.385234163    -0.159798007     0.248253154     C.2   1  noname   -0.020934
    5   C5        -0.476871330    -1.240031614     0.397399494     C.2   1  noname   -0.161042
    6   C6        -1.806532196    -1.125658599     0.034518539     C.2   1  noname   -0.115515
    7   C7         1.816617337    -0.348101149     0.655926644     C.2   1  noname    0.743935
    8   O8         2.147043587    -1.202249745     1.429613873     O.2   1  noname   -0.585498
    9   N9         2.720941864     0.516491443     0.112856463    N.am   1  noname   -0.956219
   10   H10       -3.323701754     0.165466125    -0.742409215       H   1  noname    0.130503
   11   H11       -1.814459084     2.097986851    -0.970119706       H   1  noname    0.141073
   12   H12        0.537930791     1.900861452    -0.327356417       H   1  noname    0.140811
   13   H13       -0.092050693    -2.158084402     0.798109030       H   1  noname    0.151327
   14   H14       -2.466339718    -1.967236574     0.144480244       H   1  noname    0.131414
   15   H15        3.675695203     0.292876036     0.290079394       H   1  noname    0.419764
   16   H16        2.530079460     0.947128620    -0.762292309       H   1  noname    0.382759


@<TRIPOS>BOND
    1      1      2    2
    2      2      3    1
    3      3      4    2
    4      4      5    1
    5      5      6    2
    6      4      7    1
    7      7      8    2
    8      7      9    am
    9      6      1    1
   10      1     10    1
   11      2     11    1
   12      3     12    1
   13      5     13    1
   14      6     14    1
   15      9     15    1
   16      9     16    1
#
#	File Created by: Spartan'20 Export
#

@<TRIPOS>MOLECULE
M0380
24 25
SMALL
USER_CHARGES


@<TRIPOS>ATOM
    1   C1         3.790470188     0.123168700     0.693254185     C.2   1  noname   -0.107316
    2   C2         3.649882636    -0.510934986    -0.533098866     C.2   1  noname   -0.129383
    3   C3         2.415715006    -0.546562929    -1.154406007     C.2   1  noname   -0.183773
    4   C4         1.303166964     0.027886259    -0.544965385     C.2   1  noname    0.056914
    5   C5         1.452620184     0.663304689     0.682615379     C.2   1  noname   -0.145071
    6   C6         2.694724307     0.717050329     1.295786606     C.2   1  noname   -0.157690
    7   C7         0.000031454    -0.000069505    -1.289097265     C.2   1  noname    0.429756
    8   O8         0.000019949     0.000177590    -2.486612859     O.2   1  noname   -0.496970
    9   C9        -1.303097788    -0.028049652    -0.544837398     C.2   1  noname    0.056711
   10   C10       -1.452435486    -0.663429451     0.682751443     C.2   1  noname   -0.144975
   11   C11       -2.694607863    -0.717051219     1.295782901     C.2   1  noname   -0.157809
   12   C12       -3.790538328    -0.123076546     0.693122559     C.2   1  noname   -0.107253
   13   C13       -3.650045888     0.511031082    -0.533175294     C.2   1  noname   -0.129438
   14   C14       -2.415842376     0.546478669    -1.154365926     C.2   1  noname   -0.183622
   15   H15        4.751941906     0.157631443     1.173381767       H   1  noname    0.134825
   16   H16        4.501070556    -0.968386334    -1.004086647       H   1  noname    0.136738
   17   H17        2.299622276    -1.015776716    -2.112656516       H   1  noname    0.165898
   18   H18        0.609787829     1.133306475     1.153438940       H   1  noname    0.121095
   19   H19        2.803873841     1.221830164     2.238524112       H   1  noname    0.141387
   20   H20       -0.609568530    -1.133520117     1.153676660       H   1  noname    0.121117
   21   H21       -2.803776658    -1.221814915     2.238560333       H   1  noname    0.141398
   22   H22       -4.752006540    -0.157466952     1.173275951       H   1  noname    0.134817
   23   H23       -4.501216692     0.968613817    -1.004195381       H   1  noname    0.136781
   24   H24       -2.299790949     1.015660105    -2.112673294       H   1  noname    0.165862


@<TRIPOS>BOND
    1      1      2    2
    2      2      3    1
    3      3      4    2
    4      4      5    1
    5      5      6    2
    6      4      7    1
    7      7      8    2
    8      7      9    1
    9      9     10    2
   10     10     11    1
   11     11     12    2
   12     12     13    1
   13     13     14    2
   14      6      1    1
   15     14      9    1
   16      1     15    1
   17      2     16    1
   18      3     17    1
   19      5     18    1
   20      6     19    1
   21     10     20    1
   22     11     21    1
   23     12     22    1
   24     13     23    1
   25     14     24    1
#
#	File Created by: Spartan'20 Export
#

@<TRIPOS>MOLECULE
M0381
23 24
SMALL
USER_CHARGES


@<TRIPOS>ATOM
    1   C1        -3.669498597     0.416549002     0.602264053     C.2   1  noname   -0.088440
    2   C2        -3.506753193    -0.735152369    -0.155708257     C.2   1  noname   -0.125860
    3   C3        -2.265050658    -1.052252203    -0.671734443     C.2   1  noname   -0.180489
    4   C4        -1.167537551    -0.235158700    -0.413952241     C.2   1  noname    0.020726
    5   C5        -1.339330214     0.918703338     0.343429285     C.2   1  noname   -0.099849
    6   C6        -2.589047996     1.247005228     0.843788621     C.2   1  noname   -0.185341
    7   C7         0.144696405    -0.606006410    -1.036059870     C.2   1  noname    0.487820
    8   O8         0.169003722    -1.182449320    -2.085399290     O.2   1  noname   -0.502064
    9   C9         1.436444532    -0.262807129    -0.358609703     C.2   1  noname   -0.316046
   10   C10        2.579407744    -0.110032674    -1.138616830     C.2   1  noname    0.177972
   11   C11        3.781723214     0.158685283    -0.519685039     C.2   1  noname   -0.514392
   12   C12        3.800776256     0.238644130     0.865383949     C.2   1  noname    0.471912
   13   N13        2.733417926     0.070502263     1.621826535     N.2   1  noname   -0.681536
   14   C14        1.581859799    -0.169904140     1.019691602     C.2   1  noname    0.443005
   15   H15       -4.637404641     0.666458589     0.998014895       H   1  noname    0.131819
   16   H16       -4.346974160    -1.377600948    -0.347010641       H   1  noname    0.134504
   17   H17       -2.131079300    -1.929373270    -1.275481992       H   1  noname    0.166386
   18   H18       -0.508888676     1.574209563     0.527647833       H   1  noname    0.109954
   19   H19       -2.715549330     2.146709740     1.417820390       H   1  noname    0.147838
   20   H20        2.506985193    -0.202618424    -2.205747292       H   1  noname    0.124298
   21   H21        4.684134670     0.296086433    -1.085219337       H   1  noname    0.193818
   22   H22        4.720574564     0.442674000     1.384474868       H   1  noname    0.050222
   23   H23        0.738090291    -0.312871984     1.668882904       H   1  noname    0.033745


@<TRIPOS>BOND
    1      1      2    2
    2      2      3    1
    3      3      4    2
    4      4      5    1
    5      5      6    2
    6      4      7    1
    7      7      8    2
    8      7      9    1
    9      9     10    2
   10     10     11    1
   11     11     12    2
   12     12     13    1
   13     13     14    2
   14      6      1    1
   15     14      9    1
   16      1     15    1
   17      2     16    1
   18      3     17    1
   19      5     18    1
   20      6     19    1
   21     10     20    1
   22     11     21    1
   23     12     22    1
   24     14     23    1
#
#	File Created by: Spartan'20 Export
#

@<TRIPOS>MOLECULE
M0382
31 33
SMALL
USER_CHARGES


@<TRIPOS>ATOM
    1   C1         0.025321889     0.000020541     4.093296440     C.2   1  noname   -0.193044
    2   C2        -1.180313728     0.000108797     3.419795951     C.2   1  noname   -0.050455
    3   C3        -1.212475021     0.000093609     2.031409563     C.2   1  noname   -0.248030
    4   C4        -0.042829702    -0.000014130     1.279587222     C.2   1  noname   -0.026554
    5   C5         1.165938046    -0.000097469     1.980190135     C.2   1  noname   -0.259522
    6   C6         1.203250424    -0.000081968     3.361688391     C.2   1  noname   -0.056674
    7   C7        -0.038725866    -0.000017753    -0.252059106     C.3   1  noname    0.634533
    8   C8        -1.453515955     0.000034441    -0.866994992     C.3   1  noname   -0.237864
    9   C9        -1.339558998    -0.000127104    -2.416222977     C.3   1  noname   -0.074773
   10   N10        0.045929751     0.000010384    -2.858332877     N.3   1  noname   -0.542259
   11   C11        0.714216834    -1.190202632    -2.352460169     C.3   1  noname   -0.020491
   12   C12        0.687414487    -1.251043252    -0.800812067     C.3   1  noname   -0.317344
   13   C13        0.713989462     1.190343950    -2.352443772     C.3   1  noname   -0.020530
   14   C14        0.687507189     1.250967151    -0.800781854     C.3   1  noname   -0.317280
   15   H15        0.051058158     0.000033012     5.168392271       H   1  noname    0.135191
   16   H16       -2.105433036     0.000190866     3.969006400       H   1  noname    0.116038
   17   H17       -2.169728125     0.000168713     1.547810654       H   1  noname    0.120608
   18   H18        2.096840182    -0.000173735     1.443324842       H   1  noname    0.140081
   19   H19        2.152680592    -0.000148189     3.867612285       H   1  noname    0.116261
   20   H20       -2.004580829     0.872711216    -0.530668192       H   1  noname    0.066779
   21   H21       -2.004729637    -0.872482530    -0.530505129       H   1  noname    0.066772
   22   H22       -1.829812871     0.870244420    -2.837671889       H   1  noname    0.114867
   23   H23       -1.829557497    -0.870740782    -2.837468375       H   1  noname    0.114874
   24   H24        1.734119015    -1.186883296    -2.720697424       H   1  noname    0.104014
   25   H25        0.228440111    -2.059121230    -2.782174936       H   1  noname    0.110062
   26   H26        0.174805586    -2.143041040    -0.453085887       H   1  noname    0.070377
   27   H27        1.696390133    -1.302150709    -0.406955405       H   1  noname    0.084961
   28   H28        1.733810236     1.187389386    -2.720908669       H   1  noname    0.104016
   29   H29        0.227849535     2.059171032    -2.781931108       H   1  noname    0.110073
   30   H30        0.175130105     2.143008116    -0.452827994       H   1  noname    0.070355
   31   H31        1.696569529     1.301830187    -0.407111333       H   1  noname    0.084956


@<TRIPOS>BOND
    1      1      2    2
    2      2      3    1
    3      3      4    2
    4      4      5    1
    5      5      6    2
    6      4      7    1
    7      7      8    1
    8      8      9    1
    9      9     10    1
   10     10     11    1
   11     11     12    1
   12     10     13    1
   13     13     14    1
   14      6      1    1
   15     12      7    1
   16     14      7    1
   17      1     15    1
   18      2     16    1
   19      3     17    1
   20      5     18    1
   21      6     19    1
   22      8     20    1
   23      8     21    1
   24      9     22    1
   25      9     23    1
   26     11     24    1
   27     11     25    1
   28     12     26    1
   29     12     27    1
   30     13     28    1
   31     13     29    1
   32     14     30    1
   33     14     31    1
#
#	File Created by: Spartan'20 Export
#

@<TRIPOS>MOLECULE
M0383
22 23
SMALL
USER_CHARGES


@<TRIPOS>ATOM
    1   C1         3.491926564    -0.258534332     0.412693931     C.2   1  noname   -0.099203
    2   C2         2.813126695    -1.365626455    -0.080375291     C.2   1  noname   -0.175920
    3   C3         1.443804132    -1.322804060    -0.248754603     C.2   1  noname   -0.022369
    4   C4         0.726799019    -0.169070863     0.070099209     C.2   1  noname   -0.131620
    5   C5         1.415070472     0.932980506     0.561623223     C.2   1  noname   -0.116924
    6   C6         2.790942048     0.888972479     0.734185834     C.2   1  noname   -0.150461
    7   C7        -0.747003311    -0.137528776    -0.112385014     C.2   1  noname    0.465813
    8   N8        -1.397523195    -1.156367879    -0.459733150     N.2   1  noname   -0.599846
    9   C9        -2.818538620    -0.851844144    -0.522247104     C.3   1  noname    0.208538
   10   C10       -2.939836928     0.682699367    -0.451560911     C.3   1  noname   -0.365930
   11   C11       -1.585817730     1.106302002     0.133949182     C.3   1  noname   -0.013538
   12   H12        4.558870962    -0.294237917     0.543883056       H   1  noname    0.127073
   13   H13        3.354708354    -2.260116994    -0.331699309       H   1  noname    0.136845
   14   H14        0.911233365    -2.174395393    -0.626257790       H   1  noname    0.102404
   15   H15        0.886034719     1.832511004     0.817924916       H   1  noname    0.103697
   16   H16        3.308835053     1.749803572     1.117959910       H   1  noname    0.132849
   17   H17       -3.312518086    -1.340882374     0.313238070       H   1  noname    0.045625
   18   H18       -3.244293929    -1.268763776    -1.427395279       H   1  noname    0.043546
   19   H19       -3.059793946     1.095101618    -1.447322857       H   1  noname    0.118117
   20   H20       -3.782633292     1.012715010     0.143431368       H   1  noname    0.101407
   21   H21       -1.173856058     1.988632460    -0.341993403       H   1  noname    0.042162
   22   H22       -1.639536289     1.310454947     1.200736012       H   1  noname    0.047734


@<TRIPOS>BOND
    1      1      2    2
    2      2      3    1
    3      3      4    2
    4      4      5    1
    5      5      6    2
    6      4      7    1
    7      7      8    2
    8      8      9    1
    9      9     10    1
   10     10     11    1
   11      6      1    1
   12     11      7    1
   13      1     12    1
   14      2     13    1
   15      3     14    1
   16      5     15    1
   17      6     16    1
   18      9     17    1
   19      9     18    1
   20     10     19    1
   21     10     20    1
   22     11     21    1
   23     11     22    1
#
#	File Created by: Spartan'20 Export
#

@<TRIPOS>MOLECULE
M0384
14 14
SMALL
USER_CHARGES


@<TRIPOS>ATOM
    1   C1        -0.346176340     0.000000000    -1.871623762     C.2   1  noname   -0.118106
    2   C2        -1.406245802     0.000000000    -0.972859686     C.2   1  noname   -0.133113
    3   C3        -1.158228027     0.000000000     0.385533118     C.2   1  noname   -0.151961
    4   C4         0.153608496     0.000000000     0.851295369     C.2   1  noname    0.094589
    5   C5         1.208105766     0.000000000    -0.050450820     C.2   1  noname   -0.252278
    6   C6         0.960433786     0.000000000    -1.414060826     C.2   1  noname   -0.090900
    7   C7         0.429490358     0.000000000     2.308421025     C.2   1  noname    0.350840
    8   O8        -0.408028216     0.000000000     3.154429205     O.2   1  noname   -0.464941
    9   H9        -0.542381816     0.000000000    -2.929019788       H   1  noname    0.136066
   10   H10       -2.418079743     0.000000000    -1.335983975       H   1  noname    0.138147
   11   H11       -1.963124839     0.000000000     1.096386605       H   1  noname    0.157241
   12   H12        2.222248546     0.000000000     0.311163573       H   1  noname    0.153663
   13   H13        1.778080165     0.000000000    -2.111796593       H   1  noname    0.132147
   14   H14        1.490297665     0.000000000     2.578566554       H   1  noname    0.048606


@<TRIPOS>BOND
    1      1      2    2
    2      2      3    1
    3      3      4    2
    4      4      5    1
    5      5      6    2
    6      4      7    1
    7      7      8    2
    8      6      1    1
    9      1      9    1
   10      2     10    1
   11      3     11    1
   12      5     12    1
   13      6     13    1
   14      7     14    1
#
#	File Created by: Spartan'20 Export
#

@<TRIPOS>MOLECULE
M0385
20 20
SMALL
USER_CHARGES


@<TRIPOS>ATOM
    1   C1         2.794729452     0.068468641     0.785584199     C.2   1  noname   -0.200345
    2   C2         2.005083934     1.192323119     0.596282294     C.2   1  noname   -0.062602
    3   C3         0.765747855     1.082686523    -0.010118740     C.2   1  noname   -0.331065
    4   C4         0.289559186    -0.152202747    -0.440382055     C.2   1  noname    0.392904
    5   C5         1.092063294    -1.270317679    -0.247067155     C.2   1  noname   -0.327992
    6   C6         2.333217262    -1.165332928     0.361965544     C.2   1  noname   -0.077302
    7   C7        -1.067914718    -0.292081987    -1.096694331     C.3   1  noname   -0.577034
    8   C8        -2.241928505    -0.354170184    -0.111796331     C.3   1  noname    0.508029
    9   N9        -2.475503369     0.937391530     0.514056769     N.3   1  noname   -0.957585
   10   H10        3.758596984     0.155644340     1.255092805       H   1  noname    0.138183
   11   H11        2.355257940     2.156097216     0.921628028       H   1  noname    0.123189
   12   H12        0.156176015     1.957456259    -0.139365599       H   1  noname    0.169808
   13   H13        0.747098034    -2.234876163    -0.579237190       H   1  noname    0.157808
   14   H14        2.937509297    -2.044794470     0.499050002       H   1  noname    0.125700
   15   H15       -1.079434247    -1.196222454    -1.698295227       H   1  noname    0.128599
   16   H16       -1.235104426     0.534180724    -1.783893869       H   1  noname    0.170586
   17   H17       -3.118760665    -0.730507691    -0.642252078       H   1  noname   -0.071075
   18   H18       -2.014496867    -1.070836891     0.669376981       H   1  noname   -0.000105
   19   H19       -2.892268854     1.574147308    -0.138622485       H   1  noname    0.355736
   20   H20       -3.109627602     0.852947533     1.284688438       H   1  noname    0.334563


@<TRIPOS>BOND
    1      1      2    2
    2      2      3    1
    3      3      4    2
    4      4      5    1
    5      5      6    2
    6      4      7    1
    7      7      8    1
    8      8      9    1
    9      6      1    1
   10      1     10    1
   11      2     11    1
   12      3     12    1
   13      5     13    1
   14      6     14    1
   15      7     15    1
   16      7     16    1
   17      8     17    1
   18      8     18    1
   19      9     19    1
   20      9     20    1
#
#	File Created by: Spartan'20 Export
#

@<TRIPOS>MOLECULE
M0386
19 19
SMALL
USER_CHARGES


@<TRIPOS>ATOM
    1   C1         2.700694595     0.517964171     0.032454972     C.2   1  noname   -0.163568
    2   C2         2.103292115    -0.427269652     0.851950600     C.2   1  noname   -0.098974
    3   C3         0.788471788    -0.805863353     0.639535183     C.2   1  noname   -0.299133
    4   C4         0.044252428    -0.246843610    -0.395760530     C.2   1  noname    0.354024
    5   C5         0.654878173     0.697183051    -1.211436414     C.2   1  noname   -0.299259
    6   C6         1.971527782     1.080068247    -1.000937185     C.2   1  noname   -0.106259
    7   C7        -1.398240451    -0.645881365    -0.625947801     C.3   1  noname   -0.534192
    8   C8        -2.387347844     0.040681506     0.309233011     C.3   1  noname    0.343097
    9   O9        -2.196504148    -0.456107771     1.607874939     O.3   1  noname   -0.664466
   10   H10        3.723012456     0.809649378     0.196707599       H   1  noname    0.132736
   11   H11        2.662409001    -0.871314612     1.656884337       H   1  noname    0.128083
   12   H12        0.330019564    -1.532625951     1.284828943       H   1  noname    0.186967
   13   H13        0.100533680     1.136634826    -2.023632053       H   1  noname    0.155478
   14   H14        2.424958158     1.811729397    -1.646480388       H   1  noname    0.131079
   15   H15       -1.681450798    -0.409299079    -1.647601122       H   1  noname    0.137682
   16   H16       -1.515259793    -1.718323618    -0.505110710       H   1  noname    0.180247
   17   H17       -3.402513918    -0.164564151    -0.027901071       H   1  noname   -0.000147
   18   H18       -2.236238196     1.117339739     0.279496387       H   1  noname    0.010237
   19   H19       -2.686494591     0.066842848     2.225841304       H   1  noname    0.406368


@<TRIPOS>BOND
    1      1      2    2
    2      2      3    1
    3      3      4    2
    4      4      5    1
    5      5      6    2
    6      4      7    1
    7      7      8    1
    8      8      9    1
    9      6      1    1
   10      1     10    1
   11      2     11    1
   12      3     12    1
   13      5     13    1
   14      6     14    1
   15      7     15    1
   16      7     16    1
   17      8     17    1
   18      8     18    1
   19      9     19    1
#
#	File Created by: Spartan'20 Export
#

@<TRIPOS>MOLECULE
M0387
17 17
SMALL
USER_CHARGES


@<TRIPOS>ATOM
    1   C1         2.400098966     0.571014941    -0.101540753     C.2   1  noname   -0.187928
    2   C2         1.433206066     1.225074041    -0.851372065     C.2   1  noname   -0.110851
    3   C3         0.115846127     0.803130475    -0.815075673     C.2   1  noname   -0.194099
    4   C4        -0.258081865    -0.281776716    -0.027267619     C.2   1  noname    0.183297
    5   C5         0.715525008    -0.926188652     0.723034612     C.2   1  noname   -0.328809
    6   C6         2.037448217    -0.506679100     0.686189080     C.2   1  noname   -0.044950
    7   C7        -1.692805836    -0.770143345    -0.010987364     C.3   1  noname    0.164645
    8   N8        -2.636812071     0.336460145     0.018235461     N.3   1  noname   -0.955326
    9   H9         3.423155808     0.901717575    -0.130024644       H   1  noname    0.135922
   10   H10        1.707036449     2.065516452    -1.464577802       H   1  noname    0.128529
   11   H11       -0.633255998     1.315634641    -1.389283534       H   1  noname    0.139866
   12   H12        0.443017023    -1.762182539     1.344331921       H   1  noname    0.149626
   13   H13        2.777372781    -1.018421479     1.275939829       H   1  noname    0.118176
   14   H14       -1.886921480    -1.336844768    -0.917408653       H   1  noname    0.052257
   15   H15       -1.816548772    -1.464939723     0.820064545       H   1  noname    0.014494
   16   H16       -2.550023705     0.850104090     0.874412684       H   1  noname    0.367014
   17   H17       -3.578256720    -0.001476036    -0.034670025       H   1  noname    0.368139


@<TRIPOS>BOND
    1      1      2    2
    2      2      3    1
    3      3      4    2
    4      4      5    1
    5      5      6    2
    6      4      7    1
    7      7      8    1
    8      6      1    1
    9      1      9    1
   10      2     10    1
   11      3     11    1
   12      5     12    1
   13      6     13    1
   14      7     14    1
   15      7     15    1
   16      8     16    1
   17      8     17    1
#
#	File Created by: Spartan'20 Export
#

@<TRIPOS>MOLECULE
M0388
30 31
SMALL
USER_CHARGES


@<TRIPOS>ATOM
    1   C1         4.185417464    -0.695111658     0.073169316     C.2   1  noname   -0.126008
    2   C2         4.027755721     0.082808729    -1.064504455     C.2   1  noname   -0.157476
    3   C3         2.854062587     0.786664835    -1.266352301     C.2   1  noname   -0.218840
    4   C4         1.815194133     0.727845757    -0.342232243     C.2   1  noname    0.277711
    5   C5         1.987955260    -0.051826597     0.794451211     C.2   1  noname   -0.281827
    6   C6         3.162963325    -0.759081022     1.002515955     C.2   1  noname   -0.119030
    7   C7         0.523457682     1.492491786    -0.586186363     C.3   1  noname   -0.312090
    8   N8        -0.373263764     0.932054517    -1.588150895     N.3   1  noname   -0.568425
    9   C9        -0.911011710    -0.386440368    -1.300239627     C.3   1  noname   -0.327976
   10   C10       -1.937335643    -0.366902703    -0.182810413     C.2   1  noname    0.288886
   11   C11       -2.932606692     0.606356858    -0.148065775     C.2   1  noname   -0.173130
   12   C12       -3.891653949     0.597845974     0.848043324     C.2   1  noname   -0.162128
   13   C13       -3.874775577    -0.384282954     1.829185889     C.2   1  noname   -0.143691
   14   C14       -2.889980132    -1.354182194     1.804399476     C.2   1  noname   -0.124511
   15   C15       -1.926983856    -1.341612778     0.804474573     C.2   1  noname   -0.265363
   16   H16        5.098386521    -1.240467153     0.233025737       H   1  noname    0.129369
   17   H17        4.821225995     0.144754085    -1.788122902       H   1  noname    0.141668
   18   H18        2.748497806     1.396910230    -2.147835739       H   1  noname    0.147397
   19   H19        1.198576978    -0.106047856     1.523994983       H   1  noname    0.167876
   20   H20        3.277401066    -1.355976067     1.889687227       H   1  noname    0.134298
   21   H21       -0.026344829     1.578606476     0.342547468       H   1  noname    0.183563
   22   H22        0.760387427     2.502566252    -0.902831691       H   1  noname    0.135134
   23   H23        0.077982329     0.919753093    -2.480819470       H   1  noname    0.373795
   24   H24       -0.138953134    -1.115778064    -1.059105937       H   1  noname    0.165642
   25   H25       -1.393412738    -0.733780279    -2.209025826       H   1  noname    0.143976
   26   H26       -2.941711468     1.371671481    -0.902027256       H   1  noname    0.140981
   27   H27       -4.654243066     1.356528836     0.861169632       H   1  noname    0.140330
   28   H28       -4.621006068    -0.388661069     2.603810865       H   1  noname    0.132720
   29   H29       -2.864391656    -2.118050050     2.561416230       H   1  noname    0.134808
   30   H30       -1.161590012    -2.098658096     0.796419009       H   1  noname    0.142338


@<TRIPOS>BOND
    1      1      2    2
    2      2      3    1
    3      3      4    2
    4      4      5    1
    5      5      6    2
    6      4      7    1
    7      7      8    1
    8      8      9    1
    9      9     10    1
   10     10     11    2
   11     11     12    1
   12     12     13    2
   13     13     14    1
   14     14     15    2
   15      6      1    1
   16     15     10    1
   17      1     16    1
   18      2     17    1
   19      3     18    1
   20      5     19    1
   21      6     20    1
   22      7     21    1
   23      7     22    1
   24      8     23    1
   25      9     24    1
   26      9     25    1
   27     11     26    1
   28     12     27    1
   29     13     28    1
   30     14     29    1
   31     15     30    1
#
#	File Created by: Spartan'20 Export
#

@<TRIPOS>MOLECULE
M0389
16 16
SMALL
USER_CHARGES


@<TRIPOS>ATOM
    1   C1        -0.184385353     0.006005041    -2.241601866     C.2   1  noname   -0.174143
    2   C2         0.087951469    -1.194710667    -1.609560685     C.2   1  noname   -0.054732
    3   C3         0.266464983    -1.231007105    -0.234725466     C.2   1  noname   -0.318091
    4   C4         0.183076144    -0.070941558     0.521719447     C.2   1  noname    0.197506
    5   C5        -0.091862956     1.131724042    -0.121605547     C.2   1  noname   -0.245846
    6   C6        -0.275995806     1.169685123    -1.492445345     C.2   1  noname   -0.097892
    7   C7         0.410172671    -0.103496130     2.019665117     C.3   1  noname    0.009934
    8   O8        -0.431672139     0.764046805     2.728923305     O.3   1  noname   -0.633135
    9   H9        -0.327377036     0.036163161    -3.307039611       H   1  noname    0.134815
   10   H10        0.154752245    -2.102938035    -2.181800734       H   1  noname    0.123706
   11   H11        0.468738173    -2.171434245     0.249084394       H   1  noname    0.154372
   12   H12       -0.164695217     2.033718344     0.458145116       H   1  noname    0.163799
   13   H13       -0.489025593     2.105850844    -1.977303735       H   1  noname    0.130185
   14   H14        1.417928178     0.219481473     2.249907147       H   1  noname    0.117086
   15   H15        0.309627108    -1.123372203     2.383785546       H   1  noname    0.069736
   16   H16       -1.333696871     0.531225111     2.554852918       H   1  noname    0.422699


@<TRIPOS>BOND
    1      1      2    2
    2      2      3    1
    3      3      4    2
    4      4      5    1
    5      5      6    2
    6      4      7    1
    7      7      8    1
    8      6      1    1
    9      1      9    1
   10      2     10    1
   11      3     11    1
   12      5     12    1
   13      6     13    1
   14      7     14    1
   15      7     15    1
   16      8     16    1
#
#	File Created by: Spartan'20 Export
#

@<TRIPOS>MOLECULE
M0390
29 30
SMALL
USER_CHARGES


@<TRIPOS>ATOM
    1   C1         4.362917355     0.268622386     0.804135790     C.2   1  noname   -0.160972
    2   C2         4.031743013     0.652165077    -0.488353788     C.2   1  noname   -0.127284
    3   C3         2.830712198     0.253690404    -1.046627818     C.2   1  noname   -0.250914
    4   C4         1.938933173    -0.530695590    -0.320787471     C.2   1  noname    0.356089
    5   C5         2.274846785    -0.902701293     0.972385263     C.2   1  noname   -0.307265
    6   C6         3.482620895    -0.510133946     1.532902118     C.2   1  noname   -0.097381
    7   C7         0.642774240    -1.000044204    -0.952131187     C.3   1  noname   -0.409364
    8   O8         0.000185901    -0.005963836    -1.701897245     O.3   1  noname   -0.228079
    9   C9        -0.642961739     0.994073359    -0.960295898     C.3   1  noname   -0.390214
   10   C10       -1.939296013     0.528778171    -0.326125053     C.2   1  noname    0.345948
   11   C11       -2.836535090    -0.248212423    -1.052322404     C.2   1  noname   -0.248767
   12   C12       -4.037438004    -0.642900909    -0.491498457     C.2   1  noname   -0.128608
   13   C13       -4.362679675    -0.263280108     0.804086897     C.2   1  noname   -0.158073
   14   C14       -3.476798251     0.507478105     1.533425086     C.2   1  noname   -0.100141
   15   C15       -2.269138376     0.896454196     0.970201819     C.2   1  noname   -0.303224
   16   H16        5.297788367     0.578441479     1.237247333       H   1  noname    0.136751
   17   H17        4.711734717     1.260308747    -1.058777024       H   1  noname    0.137053
   18   H18        2.572932577     0.553848707    -2.046315720       H   1  noname    0.173860
   19   H19        1.590949895    -1.501194236     1.550029221       H   1  noname    0.156533
   20   H20        3.728165305    -0.807183015     2.537170226       H   1  noname    0.133067
   21   H21       -0.020960795    -1.393812622    -0.188846006       H   1  noname    0.189893
   22   H22        0.846014593    -1.801712974    -1.651742447       H   1  noname    0.182046
   23   H23        0.020364124     1.394780326    -0.199604077       H   1  noname    0.184638
   24   H24       -0.845836482     1.790136203    -1.666918725       H   1  noname    0.177270
   25   H25       -2.583378868    -0.545689928    -2.054045702       H   1  noname    0.173914
   26   H26       -4.722130292    -1.245074538    -1.062282602       H   1  noname    0.137311
   27   H27       -5.297563455    -0.570466335     1.238991622       H   1  noname    0.136171
   28   H28       -3.717386834     0.801283264     2.539968065       H   1  noname    0.133579
   29   H29       -1.580579266     1.489005532     1.548028182       H   1  noname    0.156164


@<TRIPOS>BOND
    1      1      2    2
    2      2      3    1
    3      3      4    2
    4      4      5    1
    5      5      6    2
    6      4      7    1
    7      7      8    1
    8      8      9    1
    9      9     10    1
   10     10     11    2
   11     11     12    1
   12     12     13    2
   13     13     14    1
   14     14     15    2
   15      6      1    1
   16     15     10    1
   17      1     16    1
   18      2     17    1
   19      3     18    1
   20      5     19    1
   21      6     20    1
   22      7     21    1
   23      7     22    1
   24      9     23    1
   25      9     24    1
   26     11     25    1
   27     12     26    1
   28     13     27    1
   29     14     28    1
   30     15     29    1
#
#	File Created by: Spartan'20 Export
#

@<TRIPOS>MOLECULE
M0391
14 14
SMALL
USER_CHARGES


@<TRIPOS>ATOM
    1   C1        -0.019880526    -0.000004953    -1.882439307     C.2   1  noname   -0.261026
    2   C2        -0.029188677    -1.192876299    -1.176850339     C.2   1  noname   -0.024420
    3   C3        -0.045265393    -1.198468740     0.206687834     C.2   1  noname   -0.419294
    4   C4        -0.052157204     0.000015048     0.916482963     C.2   1  noname    0.573005
    5   C5        -0.045274196     1.198492651     0.206680160     C.2   1  noname   -0.419285
    6   C6        -0.029197893     1.192869814    -1.176855850     C.2   1  noname   -0.024425
    7   N7        -0.116823664     0.000008099     2.312009885     N.3   1  noname   -0.949990
    8   H8        -0.006030065     0.000000541    -2.956972348       H   1  noname    0.144777
    9   H9        -0.023588808    -2.129962751    -1.705092410       H   1  noname    0.126780
   10   H10       -0.059610183    -2.132773643     0.741237609       H   1  noname    0.185941
   11   H11       -0.059622790     2.132815931     0.741199766       H   1  noname    0.185944
   12   H12       -0.023602123     2.129951121    -1.705105218       H   1  noname    0.126779
   13   H13        0.255176847     0.820422521     2.739538050       H   1  noname    0.377610
   14   H14        0.255064676    -0.820489340     2.739479205       H   1  noname    0.377604


@<TRIPOS>BOND
    1      1      2    2
    2      2      3    1
    3      3      4    2
    4      4      5    1
    5      5      6    2
    6      4      7    1
    7      6      1    1
    8      1      8    1
    9      2      9    1
   10      3     10    1
   11      5     11    1
   12      6     12    1
   13      7     13    1
   14      7     14    1
#
#	File Created by: Spartan'20 Export
#

@<TRIPOS>MOLECULE
M0392
14 14
SMALL
USER_CHARGES


@<TRIPOS>ATOM
    1   C1        -0.000016521     0.000000000    -1.888501299     C.2   1  noname   -0.107697
    2   C2        -1.203500213     0.000000000    -1.200174511     C.2   1  noname   -0.112571
    3   C3        -1.211390535     0.000000000     0.182975970     C.2   1  noname   -0.145777
    4   C4         0.000016972     0.000000000     0.850236040     C.2   1  noname   -0.008901
    5   C5         1.211408401     0.000000000     0.182991860     C.2   1  noname   -0.145777
    6   C6         1.203481557     0.000000000    -1.200155539     C.2   1  noname   -0.112576
    7   N7         0.000006162     0.000000000     2.309043756       N   1  noname    0.829511
    8   O8         1.056949520     0.000000000     2.863895649       O   1  noname   -0.474947
    9   O9        -1.056947531     0.000000000     2.863875106     O.2   1  noname   -0.474947
   10   H10       -0.000011961     0.000000000    -2.963463521       H   1  noname    0.141614
   11   H11       -2.133890031     0.000000000    -1.737116738       H   1  noname    0.139458
   12   H12       -2.128042054     0.000000000     0.736753583       H   1  noname    0.166578
   13   H13        2.128068677     0.000000000     0.736750139       H   1  noname    0.166581
   14   H14        2.133867557     0.000000000    -1.737110495       H   1  noname    0.139453


@<TRIPOS>BOND
    1      1      2    2
    2      2      3    1
    3      3      4    2
    4      4      5    1
    5      5      6    2
    6      4      7    1
    7      7      8    1
    8      7      9    2
    9      6      1    1
   10      1     10    1
   11      2     11    1
   12      3     12    1
   13      5     13    1
   14      6     14    1
#
#	File Created by: Spartan'20 Export
#

@<TRIPOS>MOLECULE
M0393
13 13
SMALL
USER_CHARGES


@<TRIPOS>ATOM
    1   C1        -0.034028186     0.000000000    -1.656038710     C.2   1  noname   -0.274778
    2   C2        -1.240443440     0.000000000    -0.967848527     C.2   1  noname   -0.036519
    3   C3        -1.268266976     0.000000000     0.413076588     C.2   1  noname   -0.361265
    4   C4        -0.074310918     0.000000000     1.121809895     C.2   1  noname    0.559583
    5   C5         1.135680010     0.000000000     0.446736433     C.2   1  noname   -0.473243
    6   C6         1.148833126     0.000000000    -0.940098311     C.2   1  noname    0.021139
    7   O7        -0.151566684     0.000000000     2.472424129     O.3   1  noname   -0.669300
    8   H8        -0.020425404     0.000000000    -2.730632950       H   1  noname    0.150831
    9   H9        -2.167942542     0.000000000    -1.512429099       H   1  noname    0.131359
   10   H10       -2.195280517     0.000000000     0.955592072       H   1  noname    0.196494
   11   H11        2.061529050     0.000000000     0.997538090       H   1  noname    0.182120
   12   H12        2.092261006     0.000000000    -1.456462958       H   1  noname    0.123115
   13   H13        0.713961475     0.000000000     2.856333348       H   1  noname    0.450464


@<TRIPOS>BOND
    1      1      2    2
    2      2      3    1
    3      3      4    2
    4      4      5    1
    5      5      6    2
    6      4      7    1
    7      6      1    1
    8      1      8    1
    9      2      9    1
   10      3     10    1
   11      5     11    1
   12      6     12    1
   13      7     13    1
#
#	File Created by: Spartan'20 Export
#

@<TRIPOS>MOLECULE
M0394
15 15
SMALL
USER_CHARGES


@<TRIPOS>ATOM
    1   C1         0.261831886     0.000013395    -2.165070527     C.2   1  noname   -0.103012
    2   C2         1.363094181     0.000006321    -1.316998702     C.2   1  noname   -0.061026
    3   C3         1.179147646     0.000002315     0.050337839     C.2   1  noname   -0.202038
    4   C4        -0.112626125     0.000012976     0.572060066     C.2   1  noname   -0.107999
    5   C5        -1.214012764     0.000004193    -0.275731842     C.2   1  noname   -0.104678
    6   C6        -1.020860950     0.000010039    -1.648912438     C.2   1  noname   -0.128396
    7   P7        -0.455157462    -0.000009103     2.332715013       P   1  noname    1.033567
    8   O8        -1.859149066    -0.000023749     2.689686402     O.2   1  noname   -0.655996
    9   Cl9        0.566114751     1.570920465     3.091029914      Cl   1  noname   -0.186707
   10   Cl10       0.566188661    -1.570882061     3.090940642      Cl   1  noname   -0.186685
   11   H11        0.410143110     0.000008945    -3.230074032       H   1  noname    0.135244
   12   H12        2.357803770    -0.000004586    -1.723877926       H   1  noname    0.128518
   13   H13        2.032551357    -0.000018747     0.704144054       H   1  noname    0.140855
   14   H14       -2.205023011    -0.000036879     0.137198013       H   1  noname    0.158807
   15   H15       -1.870045983    -0.000003524    -2.307446475       H   1  noname    0.139546


@<TRIPOS>BOND
    1      1      2    2
    2      2      3    1
    3      3      4    2
    4      4      5    1
    5      5      6    2
    6      4      7    1
    7      7      8    2
    8      7      9    1
    9      7     10    1
   10      6      1    1
   11      1     11    1
   12      2     12    1
   13      3     13    1
   14      5     14    1
   15      6     15    1
#
#	File Created by: Spartan'20 Export
#

@<TRIPOS>MOLECULE
M0395
25 26
SMALL
USER_CHARGES


@<TRIPOS>ATOM
    1   C1         3.698770699     1.086956147     0.436995328     C.2   1  noname   -0.082389
    2   C2         3.000374144     1.400773057    -0.719827825     C.2   1  noname   -0.142128
    3   C3         1.912264405     0.636220847    -1.101049885     C.2   1  noname   -0.129471
    4   C4         1.511240980    -0.447466484    -0.323071421     C.2   1  noname   -0.100655
    5   C5         2.223784974    -0.764647782     0.830326525     C.2   1  noname   -0.116721
    6   C6         3.312996362     0.004663843     1.209213584     C.2   1  noname   -0.139301
    7   P7         0.080831438    -1.493950971    -0.682392810       P   1  noname    0.957306
    8   O8         0.160739598    -2.817087831    -0.069822445     O.2   1  noname   -0.681418
    9   C9        -1.440662905    -0.619468153    -0.247121142     C.2   1  noname   -0.082926
   10   C10       -1.696959514     0.701810731    -0.607424163     C.2   1  noname   -0.234745
   11   C11       -2.875924623     1.309254967    -0.221704361     C.2   1  noname   -0.057138
   12   C12       -3.806415108     0.602351513     0.527854072     C.2   1  noname   -0.119396
   13   C13       -3.556795894    -0.709279463     0.890506822     C.2   1  noname   -0.134309
   14   C14       -2.374193058    -1.322463934     0.505393915     C.2   1  noname   -0.100734
   15   Cl15       0.031067767    -1.562750452    -2.726802400      Cl   1  noname   -0.228770
   16   H16        4.546509783     1.680962781     0.728587416       H   1  noname    0.131196
   17   H17        3.307980387     2.232399457    -1.327812474       H   1  noname    0.139024
   18   H18        1.395447482     0.874775156    -2.012148062       H   1  noname    0.130424
   19   H19        1.933409002    -1.616259186     1.416327030       H   1  noname    0.155231
   20   H20        3.860149169    -0.247009011     2.099669679       H   1  noname    0.138997
   21   H21       -0.983253255     1.258450717    -1.186880421       H   1  noname    0.151940
   22   H22       -3.070183599     2.328671351    -0.501735907       H   1  noname    0.122078
   23   H23       -4.723485969     1.077564761     0.827606590       H   1  noname    0.135724
   24   H24       -4.277142574    -1.255998278     1.471442850       H   1  noname    0.137248
   25   H25       -2.170549691    -2.338473784     0.783869506       H   1  noname    0.150932


@<TRIPOS>BOND
    1      1      2    2
    2      2      3    1
    3      3      4    2
    4      4      5    1
    5      5      6    2
    6      4      7    1
    7      7      8    2
    8      7      9    1
    9      9     10    2
   10     10     11    1
   11     11     12    2
   12     12     13    1
   13     13     14    2
   14      7     15    1
   15      6      1    1
   16     14      9    1
   17      1     16    1
   18      2     17    1
   19      3     18    1
   20      5     19    1
   21      6     20    1
   22     10     21    1
   23     11     22    1
   24     12     23    1
   25     13     24    1
   26     14     25    1
#
#	File Created by: Spartan'20 Export
#

@<TRIPOS>MOLECULE
M0396
25 26
SMALL
USER_CHARGES


@<TRIPOS>ATOM
    1   C1         3.595636863    -0.004057616    -1.015841619     C.2   1  noname   -0.112698
    2   C2         3.046043071    -1.206301005    -0.598256852     C.2   1  noname   -0.104782
    3   C3         1.949375401    -1.210446161     0.246268754     C.2   1  noname   -0.148336
    4   C4         1.410929638    -0.002115933     0.661776695     C.2   1  noname   -0.067052
    5   C5         1.960884836     1.205121389     0.257699168     C.2   1  noname   -0.146770
    6   C6         3.057685668     1.199022966    -0.586834918     C.2   1  noname   -0.106154
    7   S7        -0.000024281    -0.000538488     1.738695995       S   1  noname    1.122295
    8   O8        -0.002000995    -1.250682782     2.446991068     O.2   1  noname   -0.592621
    9   O9         0.001896720     1.249337618     2.447484856     O.2   1  noname   -0.592619
   10   C10       -1.410942365     0.001499943     0.661679536     C.2   1  noname   -0.067164
   11   C11       -1.948729641     1.210238161     0.245595786     C.2   1  noname   -0.148624
   12   C12       -3.045362622     1.206785647    -0.598849479     C.2   1  noname   -0.104555
   13   C13       -3.595598666     0.004801952    -1.015797745     C.2   1  noname   -0.112644
   14   C14       -3.058326272    -1.198642479    -0.586227041     C.2   1  noname   -0.106503
   15   C15       -1.961502940    -1.205433314     0.258205394     C.2   1  noname   -0.146304
   16   H16        4.449347276    -0.005016592    -1.669414088       H   1  noname    0.136463
   17   H17        3.474248570    -2.137416379    -0.921957057       H   1  noname    0.133407
   18   H18        1.528518982    -2.133622030     0.595548898       H   1  noname    0.156803
   19   H19        1.548557355     2.128712299     0.615976497       H   1  noname    0.156778
   20   H20        3.494693705     2.129137587    -0.901415684       H   1  noname    0.133812
   21   H21       -1.527226191     2.133271675     0.594612669       H   1  noname    0.156844
   22   H22       -3.472909051     2.138043691    -0.922858614       H   1  noname    0.133417
   23   H23       -4.449344703     0.005972211    -1.669363267       H   1  noname    0.136441
   24   H24       -3.496085506    -2.128557947    -0.900476860       H   1  noname    0.133837
   25   H25       -1.549764850    -2.129114410     0.616757905       H   1  noname    0.156730


@<TRIPOS>BOND
    1      1      2    2
    2      2      3    1
    3      3      4    2
    4      4      5    1
    5      5      6    2
    6      4      7    1
    7      7      8    2
    8      7      9    2
    9      7     10    1
   10     10     11    2
   11     11     12    1
   12     12     13    2
   13     13     14    1
   14     14     15    2
   15      6      1    1
   16     15     10    1
   17      1     16    1
   18      2     17    1
   19      3     18    1
   20      5     19    1
   21      6     20    1
   22     11     21    1
   23     12     22    1
   24     13     23    1
   25     14     24    1
   26     15     25    1
#
#	File Created by: Spartan'20 Export
#

@<TRIPOS>MOLECULE
M0397
24 25
SMALL
USER_CHARGES


@<TRIPOS>ATOM
    1   C1         0.892380621     3.516680287     0.318929694     C.2   1  noname   -0.183967
    2   C2         1.043902761     2.900946673    -0.914128934     C.2   1  noname   -0.029293
    3   C3         0.236406581     1.829141454    -1.255317381     C.2   1  noname   -0.321885
    4   C4        -0.708047238     1.370816203    -0.350228832     C.2   1  noname    0.214986
    5   C5        -0.877305774     1.989509612     0.876428070     C.2   1  noname   -0.185237
    6   C6        -0.068914494     3.064867903     1.209136806     C.2   1  noname   -0.105406
    7   S7        -1.781020175     0.000149806    -0.791928114       S   1  noname    0.257986
    8   O8        -2.884484151    -0.000797284     0.204423973     O.2   1  noname   -0.511172
    9   C9        -0.707400154    -1.370922967    -0.354531398     C.2   1  noname    0.216058
   10   C10        0.218400358    -1.842583621    -1.271597471     C.2   1  noname   -0.315397
   11   C11        1.028217354    -2.914108894    -0.933810182     C.2   1  noname   -0.035344
   12   C12        0.896903390    -3.515993182     0.307961126     C.2   1  noname   -0.185227
   13   C13       -0.046640459    -3.051087494     1.210642732     C.2   1  noname   -0.098521
   14   C14       -0.856824650    -1.976288433     0.881402010     C.2   1  noname   -0.193251
   15   H15        1.515590056     4.352889663     0.580364157       H   1  noname    0.146948
   16   H16        1.779851903     3.259724683    -1.610649407       H   1  noname    0.124761
   17   H17        0.339424456     1.363123155    -2.219442700       H   1  noname    0.163130
   18   H18       -1.640833357     1.636138682     1.542316110       H   1  noname    0.162701
   19   H19       -0.193102606     3.551309416     2.159980427       H   1  noname    0.139766
   20   H20        0.304689128    -1.387718904    -2.242650456       H   1  noname    0.161013
   21   H21        1.749766974    -3.283286538    -1.639885932       H   1  noname    0.127030
   22   H22        1.521573487    -4.351859895     0.566947242       H   1  noname    0.147465
   23   H23       -0.155355490    -3.527151981     2.168521299       H   1  noname    0.138516
   24   H24       -1.607178524    -1.613498343     1.557117162       H   1  noname    0.164341


@<TRIPOS>BOND
    1      1      2    2
    2      2      3    1
    3      3      4    2
    4      4      5    1
    5      5      6    2
    6      4      7    1
    7      7      8    2
    8      7      9    1
    9      9     10    2
   10     10     11    1
   11     11     12    2
   12     12     13    1
   13     13     14    2
   14      6      1    1
   15     14      9    1
   16      1     15    1
   17      2     16    1
   18      3     17    1
   19      5     18    1
   20      6     19    1
   21     10     20    1
   22     11     21    1
   23     12     22    1
   24     13     23    1
   25     14     24    1
#
#	File Created by: Spartan'20 Export
#

@<TRIPOS>MOLECULE
M0398
26 28
SMALL
USER_CHARGES


@<TRIPOS>ATOM
    1   C1        -4.416881913     0.000000000    -0.890324389     C.2   1  noname   -0.115859
    2   C2        -3.253607647     0.000000000    -1.646421566     C.2   1  noname   -0.121417
    3   C3        -2.021674183     0.000000000    -1.019516025     C.2   1  noname   -0.232633
    4   C4        -1.942753479     0.000000000     0.370808216     C.2   1  noname    0.212601
    5   C5        -3.115320082     0.000000000     1.122992122     C.2   1  noname   -0.215800
    6   C6        -4.347458026     0.000000000     0.493800196     C.2   1  noname   -0.108669
    7   C7        -0.672601836     0.000000000     1.083722801     C.2   1  noname   -0.117540
    8   C8         0.672584713     0.000000000     1.083641669     C.2   1  noname   -0.117533
    9   C9         0.000122265     0.000000000     2.318779154     C.2   1  noname    0.516239
   10   O10        0.000128193     0.000000000     3.518507988     O.2   1  noname   -0.607332
   11   C11        1.942687766     0.000000000     0.370662438     C.2   1  noname    0.212578
   12   C12        2.021738323     0.000000000    -1.019694170     C.2   1  noname   -0.232650
   13   C13        3.253717823     0.000000000    -1.646538233     C.2   1  noname   -0.121395
   14   C14        4.416887956     0.000000000    -0.890345837     C.2   1  noname   -0.115854
   15   C15        4.347336960     0.000000000     0.493804742     C.2   1  noname   -0.108702
   16   C16        3.115154391     0.000000000     1.122941097     C.2   1  noname   -0.215772
   17   H17       -5.374096775     0.000000000    -1.380013305       H   1  noname    0.136561
   18   H18       -3.308856456     0.000000000    -2.720012687       H   1  noname    0.137611
   19   H19       -1.124209636     0.000000000    -1.608800438       H   1  noname    0.163990
   20   H20       -3.049627900     0.000000000     2.195690296       H   1  noname    0.168847
   21   H21       -5.248397920     0.000000000     1.079875248       H   1  noname    0.137864
   22   H22        1.124312207     0.000000000    -1.609074402       H   1  noname    0.163978
   23   H23        3.309051490     0.000000000    -2.720127095       H   1  noname    0.137616
   24   H24        5.374153157     0.000000000    -1.379939706       H   1  noname    0.136559
   25   H25        5.248247105     0.000000000     1.079950508       H   1  noname    0.137864
   26   H26        3.049363506     0.000000000     2.195631380       H   1  noname    0.168849


@<TRIPOS>BOND
    1      1      2    2
    2      2      3    1
    3      3      4    2
    4      4      5    1
    5      5      6    2
    6      4      7    1
    7      7      8    2
    8      8      9    1
    9      9     10    2
   10      8     11    1
   11     11     12    2
   12     12     13    1
   13     13     14    2
   14     14     15    1
   15     15     16    2
   16      6      1    1
   17      9      7    1
   18     16     11    1
   19      1     17    1
   20      2     18    1
   21      3     19    1
   22      5     20    1
   23      6     21    1
   24     12     22    1
   25     13     23    1
   26     14     24    1
   27     15     25    1
   28     16     26    1
#
#	File Created by: Spartan'20 Export
#

@<TRIPOS>MOLECULE
M0399
27 29
SMALL
USER_CHARGES


@<TRIPOS>ATOM
    1   C1         0.385061646     0.000000000     4.575114994     C.2   1  noname   -0.105509
    2   C2        -0.933974849     0.000000000     4.147224981     C.2   1  noname   -0.113828
    3   C3        -1.227814524     0.000000000     2.797923699     C.2   1  noname   -0.210825
    4   C4        -0.207114731     0.000000000     1.847979472     C.2   1  noname    0.084455
    5   C5         1.113456725     0.000000000     2.288003167     C.2   1  noname   -0.145245
    6   C6         1.405372903     0.000000000     3.641824593     C.2   1  noname   -0.146922
    7   C7        -0.510081445     0.000000000     0.395393172     C.2   1  noname    0.377603
    8   C8        -1.726125750     0.000000000    -0.160901163     C.2   1  noname   -0.662179
    9   C9        -1.914289110     0.000000000    -1.609429824     C.2   1  noname    0.803306
   10   O10       -2.997181635     0.000000000    -2.130735341     O.2   1  noname   -0.601446
   11   C11       -0.653334671     0.000000000    -2.379299728     C.2   1  noname   -0.334493
   12   C12       -0.643239380     0.000000000    -3.776274383     C.2   1  noname   -0.034401
   13   C13        0.546043880     0.000000000    -4.463774487     C.2   1  noname   -0.266888
   14   C14        1.751602129     0.000000000    -3.757450243     C.2   1  noname    0.049748
   15   C15        1.764788932     0.000000000    -2.382315306     C.2   1  noname   -0.478186
   16   C16        0.551517510     0.000000000    -1.702045436     C.2   1  noname    0.575636
   17   O17        0.610095669     0.000000000    -0.349289884     O.3   1  noname   -0.393947
   18   H18        0.611960001     0.000000000     5.626097635       H   1  noname    0.133359
   19   H19       -1.734645580     0.000000000     4.864611708       H   1  noname    0.134359
   20   H20       -2.256523092     0.000000000     2.493821030       H   1  noname    0.161573
   21   H21        1.913023894     0.000000000     1.574765455       H   1  noname    0.144309
   22   H22        2.431445620     0.000000000     3.962795243       H   1  noname    0.139130
   23   H23       -2.612031107     0.000000000     0.438870113       H   1  noname    0.237860
   24   H24       -1.587503392     0.000000000    -4.286987150       H   1  noname    0.153221
   25   H25        0.553310482     0.000000000    -5.538273357       H   1  noname    0.158800
   26   H26        2.683846493     0.000000000    -4.293215427       H   1  noname    0.126298
   27   H27        2.682333381     0.000000000    -1.824433533       H   1  noname    0.214215


@<TRIPOS>BOND
    1      1      2    2
    2      2      3    1
    3      3      4    2
    4      4      5    1
    5      5      6    2
    6      4      7    1
    7      7      8    2
    8      8      9    1
    9      9     10    2
   10      9     11    1
   11     11     12    2
   12     12     13    1
   13     13     14    2
   14     14     15    1
   15     15     16    2
   16     16     17    1
   17      6      1    1
   18     17      7    1
   19     16     11    1
   20      1     18    1
   21      2     19    1
   22      3     20    1
   23      5     21    1
   24      6     22    1
   25      8     23    1
   26     12     24    1
   27     13     25    1
   28     14     26    1
   29     15     27    1
#
#	File Created by: Spartan'20 Export
#

@<TRIPOS>MOLECULE
M0400
21 22
SMALL
USER_CHARGES


@<TRIPOS>ATOM
    1   C1        -0.122217051     0.000000000    -3.477297613     C.2   1  noname   -0.076131
    2   C2        -1.297211466     0.000000000    -2.742915726     C.2   1  noname   -0.202679
    3   C3        -1.258799236     0.000000000    -1.360475089     C.2   1  noname    0.002630
    4   C4        -0.043042324     0.000000000    -0.678494672     C.2   1  noname   -0.169359
    5   C5         1.130383567     0.000000000    -1.429777663     C.2   1  noname   -0.107766
    6   C6         1.092058357     0.000000000    -2.813684814     C.2   1  noname   -0.168834
    7   C7        -0.036411431     0.000000000     0.817263520     C.2   1  noname    0.648646
    8   C8         1.140219715     0.000000000     1.565939315     C.2   1  noname   -0.553816
    9   C9         1.061696715     0.000000000     2.944869813     C.2   1  noname    0.198013
   10   C10       -0.180461682     0.000000000     3.553023896     C.2   1  noname   -0.461780
   11   C11       -1.289951445     0.000000000     2.727807745     C.2   1  noname    0.365651
   12   N12       -1.222321007     0.000000000     1.412079699     N.2   1  noname   -0.628384
   13   H13       -0.152883810     0.000000000    -4.552362387       H   1  noname    0.122371
   14   H14       -2.247456258     0.000000000    -3.246895606       H   1  noname    0.139882
   15   H15       -2.169736001     0.000000000    -0.796318785       H   1  noname    0.095293
   16   H16        2.090522313     0.000000000    -0.950235976       H   1  noname    0.124705
   17   H17        2.012527055     0.000000000    -3.369977847       H   1  noname    0.132924
   18   H18        2.101483425     0.000000000     1.093008451       H   1  noname    0.202572
   19   H19        1.961150550     0.000000000     3.534742559       H   1  noname    0.096418
   20   H20       -0.288643797     0.000000000     4.621554986       H   1  noname    0.179065
   21   H21       -2.280906191     0.000000000     3.148146192       H   1  noname    0.060577


@<TRIPOS>BOND
    1      1      2    2
    2      2      3    1
    3      3      4    2
    4      4      5    1
    5      5      6    2
    6      4      7    1
    7      7      8    2
    8      8      9    1
    9      9     10    2
   10     10     11    1
   11     11     12    2
   12      6      1    1
   13     12      7    1
   14      1     13    1
   15      2     14    1
   16      3     15    1
   17      5     16    1
   18      6     17    1
   19      8     18    1
   20      9     19    1
   21     10     20    1
   22     11     21    1
#
#	File Created by: Spartan'20 Export
#

@<TRIPOS>MOLECULE
M0401
22 23
SMALL
USER_CHARGES


@<TRIPOS>ATOM
    1   C1         0.001289066    -0.000895354     3.563024553     C.2   1  noname   -0.116525
    2   C2         1.118109080     0.429552189     2.866138223     C.2   1  noname   -0.131528
    3   C3         1.117019563     0.430248009     1.481855898     C.2   1  noname   -0.183526
    4   C4        -0.001114214     0.000831657     0.771183880     C.2   1  noname    0.113289
    5   C5        -1.118376795    -0.429030338     1.482028824     C.2   1  noname   -0.184553
    6   C6        -1.117091398    -0.429913665     2.866355742     C.2   1  noname   -0.129565
    7   C7        -0.001014922     0.000580806    -0.715904940     C.2   1  noname    0.036183
    8   C8        -1.095782289     0.440424596    -1.451706712     C.2   1  noname   -0.161151
    9   C9        -1.070520520     0.430213152    -2.826670486     C.2   1  noname   -0.187421
   10   N10        0.000339805    -0.000021709    -3.505981904       N   1  noname    0.554093
   11   O11        0.001756333    -0.000456777    -4.782886220       O   1  noname   -0.653872
   12   C12        1.070360265    -0.430189540    -2.825660214     C.2   1  noname   -0.187916
   13   C13        1.094191455    -0.439837518    -1.450760351     C.2   1  noname   -0.160469
   14   H14        0.002130397    -0.001911483     4.638245252       H   1  noname    0.132453
   15   H15        1.987799902     0.771071698     3.398417028       H   1  noname    0.138515
   16   H16        1.981870827     0.786707250     0.951618508       H   1  noname    0.140608
   17   H17       -1.983725631    -0.785124137     0.952395287       H   1  noname    0.141105
   18   H18       -1.985808678    -0.772353081     3.399224304       H   1  noname    0.137699
   19   H19       -1.974690200     0.814980392    -0.961821944       H   1  noname    0.158756
   20   H20       -1.877296918     0.762600982    -3.445433190       H   1  noname    0.192529
   21   H21        1.877914286    -0.763054839    -3.443569617       H   1  noname    0.192710
   22   H22        1.972640589    -0.814422290    -0.960091922       H   1  noname    0.158585


@<TRIPOS>BOND
    1      1      2    2
    2      2      3    1
    3      3      4    2
    4      4      5    1
    5      5      6    2
    6      4      7    1
    7      7      8    2
    8      8      9    1
    9      9     10    2
   10     10     11    1
   11     10     12    1
   12     12     13    2
   13      6      1    1
   14     13      7    1
   15      1     14    1
   16      2     15    1
   17      3     16    1
   18      5     17    1
   19      6     18    1
   20      8     19    1
   21      9     20    1
   22     12     21    1
   23     13     22    1
#
#	File Created by: Spartan'20 Export
#

@<TRIPOS>MOLECULE
M0402
21 22
SMALL
USER_CHARGES


@<TRIPOS>ATOM
    1   C1        -0.000078648     0.000240815     3.330990422     C.2   1  noname   -0.091151
    2   C2         1.117737547     0.429287689     2.634082771     C.2   1  noname   -0.157870
    3   C3         1.118622618     0.426733343     1.249591054     C.2   1  noname   -0.138506
    4   C4         0.000000887    -0.000234664     0.539169242     C.2   1  noname   -0.000428
    5   C5        -1.118635795    -0.427004447     1.249813952     C.2   1  noname   -0.138596
    6   C6        -1.117824333    -0.429091695     2.634309660     C.2   1  noname   -0.157794
    7   C7        -0.000091493    -0.000247733    -0.950059394     C.2   1  noname    0.437983
    8   C8        -1.093939874     0.455565795    -1.677959931     C.2   1  noname   -0.574910
    9   C9        -1.039595816     0.433477181    -3.060248288     C.2   1  noname    0.477500
   10   N10        0.000251853     0.000249087    -3.749740618     N.2   1  noname   -0.692396
   11   C11        1.039831032    -0.433362660    -3.060459466     C.2   1  noname    0.477653
   12   C12        1.093851259    -0.455904121    -1.678173502     C.2   1  noname   -0.574982
   13   H13       -0.000103244     0.000464995     4.406166901       H   1  noname    0.125549
   14   H14        1.987019318     0.770910753     3.166635687       H   1  noname    0.137760
   15   H15        1.984581734     0.777980999     0.718195736       H   1  noname    0.134638
   16   H16       -1.984614458    -0.778355796     0.718557896       H   1  noname    0.134634
   17   H17       -1.987157353    -0.770480098     3.167012562       H   1  noname    0.137754
   18   H18       -1.964953553     0.842025667    -1.182450884       H   1  noname    0.189262
   19   H19       -1.875999587     0.789080760    -3.636215888       H   1  noname    0.042350
   20   H20        1.876300723    -0.788808783    -3.636484530       H   1  noname    0.042333
   21   H21        1.964797183    -0.842527088    -1.182733380       H   1  noname    0.189216


@<TRIPOS>BOND
    1      1      2    2
    2      2      3    1
    3      3      4    2
    4      4      5    1
    5      5      6    2
    6      4      7    1
    7      7      8    2
    8      8      9    1
    9      9     10    2
   10     10     11    1
   11     11     12    2
   12      6      1    1
   13     12      7    1
   14      1     13    1
   15      2     14    1
   16      3     15    1
   17      5     16    1
   18      6     17    1
   19      8     18    1
   20      9     19    1
   21     11     20    1
   22     12     21    1
#
#	File Created by: Spartan'20 Export
#

@<TRIPOS>MOLECULE
M0403
24 26
SMALL
USER_CHARGES


@<TRIPOS>ATOM
    1   C1         0.057260867     0.000000000    -4.385838404     C.2   1  noname   -0.116955
    2   C2        -1.172845979     0.000000000    -3.744012316     C.2   1  noname   -0.123350
    3   C3        -1.234038297     0.000000000    -2.363933410     C.2   1  noname   -0.140642
    4   C4        -0.059740258     0.000000000    -1.615619156     C.2   1  noname    0.021556
    5   C5         1.171329090     0.000000000    -2.260186113     C.2   1  noname   -0.155436
    6   C6         1.226580547     0.000000000    -3.643668894     C.2   1  noname   -0.129472
    7   C7        -0.145363208     0.000000000    -0.150065905     C.2   1  noname    0.539814
    8   N8        -1.200597738     0.000000000     0.560363718     N.2   1  noname   -0.632523
    9   C9        -0.740466945     0.000000000     1.871933304     C.2   1  noname    0.381373
   10   C10       -1.411304557     0.000000000     3.085479867     C.2   1  noname   -0.340925
   11   C11       -0.641662655     0.000000000     4.235246379     C.2   1  noname   -0.137681
   12   C12        0.754755797     0.000000000     4.180567351     C.2   1  noname   -0.172632
   13   C13        1.431891108     0.000000000     2.971707463     C.2   1  noname   -0.301774
   14   C14        0.640708727     0.000000000     1.844805607     C.2   1  noname    0.257941
   15   O15        1.013613620     0.000000000     0.539783196     O.3   1  noname   -0.361262
   16   H16        0.102665473     0.000000000    -5.460274250       H   1  noname    0.133596
   17   H17       -2.081100770     0.000000000    -4.319130047       H   1  noname    0.133082
   18   H18       -2.179319025     0.000000000    -1.855343602       H   1  noname    0.142859
   19   H19        2.076979111     0.000000000    -1.684149601       H   1  noname    0.145061
   20   H20        2.180588759     0.000000000    -4.139377457       H   1  noname    0.134113
   21   H21       -2.484639843     0.000000000     3.123867487       H   1  noname    0.207574
   22   H22       -1.125505856     0.000000000     5.195288127       H   1  noname    0.151575
   23   H23        1.316098580     0.000000000     5.097297459       H   1  noname    0.160693
   24   H24        2.504113452     0.000000000     2.915259197       H   1  noname    0.203414


@<TRIPOS>BOND
    1      1      2    2
    2      2      3    1
    3      3      4    2
    4      4      5    1
    5      5      6    2
    6      4      7    1
    7      7      8    2
    8      8      9    1
    9      9     10    2
   10     10     11    1
   11     11     12    2
   12     12     13    1
   13     13     14    2
   14     14     15    1
   15      6      1    1
   16     15      7    1
   17     14      9    1
   18      1     16    1
   19      2     17    1
   20      3     18    1
   21      5     19    1
   22      6     20    1
   23     10     21    1
   24     11     22    1
   25     12     23    1
   26     13     24    1
#
#	File Created by: Spartan'20 Export
#

@<TRIPOS>MOLECULE
M0404
24 26
SMALL
USER_CHARGES


@<TRIPOS>ATOM
    1   C1        -2.863695228     0.000000000    -1.513702584     C.2   1  noname   -0.069793
    2   C2        -3.560594531     0.000000000    -0.315311154     C.2   1  noname   -0.176846
    3   C3        -2.853001874     0.000000000     0.867773941     C.2   1  noname   -0.068566
    4   C4        -1.461958344     0.000000000     0.861351980     C.2   1  noname   -0.138403
    5   C5        -0.746950371     0.000000000    -0.342118260     C.2   1  noname    0.064631
    6   C6        -1.481836499     0.000000000    -1.527396073     C.2   1  noname   -0.213451
    7   C7         0.747000264     0.000000000    -0.342117580     C.2   1  noname    0.064622
    8   C8         1.481866677     0.000000000    -1.527432973     C.2   1  noname   -0.213428
    9   C9         2.863683537     0.000000000    -1.513737977     C.2   1  noname   -0.069807
   10   C10        3.560550887     0.000000000    -0.315308603     C.2   1  noname   -0.176837
   11   C11        2.852987101     0.000000000     0.867813864     C.2   1  noname   -0.068580
   12   C12        1.461986255     0.000000000     0.861388912     C.2   1  noname   -0.138394
   13   C13        0.768033118     0.000000000     2.174204125     C.2   1  noname    0.483850
   14   O14        1.345439277     0.000000000     3.213636758     O.2   1  noname   -0.472812
   15   C15       -0.768026051     0.000000000     2.174183359     C.2   1  noname    0.483830
   16   O16       -1.345469928     0.000000000     3.213593051     O.2   1  noname   -0.472812
   17   H17       -3.398033729     0.000000000    -2.446823892       H   1  noname    0.135943
   18   H18       -4.635038311     0.000000000    -0.308140898       H   1  noname    0.148970
   19   H19       -3.358175626     0.000000000     1.814419269       H   1  noname    0.151872
   20   H20       -0.987795782     0.000000000    -2.477857165       H   1  noname    0.154609
   21   H21        0.987797635     0.000000000    -2.477878609       H   1  noname    0.154614
   22   H22        3.398044200     0.000000000    -2.446842876       H   1  noname    0.135951
   23   H23        4.635000072     0.000000000    -0.308135061       H   1  noname    0.148958
   24   H24        3.358187253     0.000000000     1.814438446       H   1  noname    0.151877


@<TRIPOS>BOND
    1      1      2    2
    2      2      3    1
    3      3      4    2
    4      4      5    1
    5      5      6    2
    6      5      7    1
    7      7      8    2
    8      8      9    1
    9      9     10    2
   10     10     11    1
   11     11     12    2
   12     12     13    1
   13     13     14    2
   14     13     15    1
   15     15     16    2
   16      6      1    1
   17     15      4    1
   18     12      7    1
   19      1     17    1
   20      2     18    1
   21      3     19    1
   22      6     20    1
   23      8     21    1
   24      9     22    1
   25     10     23    1
   26     11     24    1
#
#	File Created by: Spartan'20 Export
#

@<TRIPOS>MOLECULE
M0405
22 24
SMALL
USER_CHARGES


@<TRIPOS>ATOM
    1   C1        -3.011955790     0.000000000    -1.131421616     C.2   1  noname   -0.103071
    2   C2        -3.446707089     0.000000000     0.184258724     C.2   1  noname   -0.147774
    3   C3        -2.524750481     0.000000000     1.227002792     C.2   1  noname   -0.140549
    4   C4        -1.186288373     0.000000000     0.910383434     C.2   1  noname   -0.038055
    5   C5        -0.743845426     0.000000000    -0.412777872     C.2   1  noname    0.042974
    6   C6        -1.654949232     0.000000000    -1.447157719     C.2   1  noname   -0.199742
    7   C7         0.744033578     0.000000000    -0.412836393     C.2   1  noname    0.042972
    8   C8         1.654933451     0.000000000    -1.447330657     C.2   1  noname   -0.199667
    9   C9         3.011794456     0.000000000    -1.131516701     C.2   1  noname   -0.103117
   10   C10        3.446583089     0.000000000     0.184379969     C.2   1  noname   -0.147823
   11   C11        2.524819685     0.000000000     1.227242581     C.2   1  noname   -0.140540
   12   C12        1.186519020     0.000000000     0.910510483     C.2   1  noname   -0.038040
   13   C13        0.000061628     0.000000000     1.823494719     C.2   1  noname    0.483450
   14   O14       -0.000060432     0.000000000     3.014480413     O.2   1  noname   -0.491677
   15   H15       -3.736623679     0.000000000    -1.926171551       H   1  noname    0.136384
   16   H16       -4.500222601     0.000000000     0.397659770       H   1  noname    0.139821
   17   H17       -2.841511855     0.000000000     2.254074418       H   1  noname    0.159413
   18   H18       -1.339235992     0.000000000    -2.474948264       H   1  noname    0.154670
   19   H19        1.339157024     0.000000000    -2.475081607       H   1  noname    0.154710
   20   H20        3.736518823     0.000000000    -1.926219433       H   1  noname    0.136393
   21   H21        4.500132336     0.000000000     0.397695609       H   1  noname    0.139809
   22   H22        2.841597861     0.000000000     2.254278903       H   1  noname    0.159461


@<TRIPOS>BOND
    1      1      2    2
    2      2      3    1
    3      3      4    2
    4      4      5    1
    5      5      6    2
    6      5      7    1
    7      7      8    2
    8      8      9    1
    9      9     10    2
   10     10     11    1
   11     11     12    2
   12     12     13    1
   13     13     14    2
   14      6      1    1
   15     13      4    1
   16     12      7    1
   17      1     15    1
   18      2     16    1
   19      3     17    1
   20      6     18    1
   21      8     19    1
   22      9     20    1
   23     10     21    1
   24     11     22    1
#
#	File Created by: Spartan'20 Export
#

@<TRIPOS>MOLECULE
M0406
21 22
SMALL
USER_CHARGES


@<TRIPOS>ATOM
    1   C1        -2.467997439    -1.171797472    -0.146225757     C.2   1  noname   -0.151208
    2   C2        -2.739055978     0.120809986     0.280745085     C.2   1  noname   -0.085906
    3   C3        -1.699208848     1.011460597     0.457517499     C.2   1  noname   -0.304440
    4   C4        -0.380642262     0.636976207     0.213436268     C.2   1  noname    0.047874
    5   C5        -0.107266975    -0.659115185    -0.211954085     C.2   1  noname    0.237102
    6   C6        -1.162735091    -1.550936442    -0.387913384     C.2   1  noname   -0.285998
    7   C7         1.318105896    -1.093566426    -0.501059451     C.3   1  noname   -0.482909
    8   C8         2.340520161    -0.132762205     0.107540892     C.3   1  noname    0.180336
    9   N9         2.017965971     1.259697029    -0.147736854     N.3   1  noname   -0.848026
   10   C10        0.747008502     1.632269413     0.443409052     C.3   1  noname    0.093162
   11   H11       -3.269023502    -1.875715792    -0.286904640       H   1  noname    0.141060
   12   H12       -3.752087748     0.428334317     0.470872834       H   1  noname    0.130277
   13   H13       -1.908681285     2.015402028     0.787914120       H   1  noname    0.153309
   14   H14       -0.952302016    -2.554838668    -0.716604444       H   1  noname    0.165910
   15   H15        1.466338679    -1.136966570    -1.579539036       H   1  noname    0.152078
   16   H16        1.481304880    -2.101984204    -0.130309185       H   1  noname    0.134615
   17   H17        2.381860645    -0.268891535     1.184409733       H   1  noname    0.090052
   18   H18        3.332958074    -0.342009155    -0.276409180       H   1  noname    0.059643
   19   H19        1.991231276     1.421756336    -1.136661950       H   1  noname    0.409548
   20   H20        0.898490504     1.754685334     1.513301824       H   1  noname    0.087278
   21   H21        0.463216554     2.607192408     0.062170660       H   1  noname    0.076245


@<TRIPOS>BOND
    1      1      2    2
    2      2      3    1
    3      3      4    2
    4      4      5    1
    5      5      6    2
    6      5      7    1
    7      7      8    1
    8      8      9    1
    9      9     10    1
   10      6      1    1
   11     10      4    1
   12      1     11    1
   13      2     12    1
   14      3     13    1
   15      6     14    1
   16      7     15    1
   17      7     16    1
   18      8     17    1
   19      8     18    1
   20      9     19    1
   21     10     20    1
   22     10     21    1
#
#	File Created by: Spartan'20 Export
#

@<TRIPOS>MOLECULE
M0407
25 27
SMALL
USER_CHARGES


@<TRIPOS>ATOM
    1   C1        -3.687415690    -0.000241366    -0.612271093     C.2   1  noname   -0.008449
    2   C2        -3.680621958    -0.000191070     0.779871213     C.2   1  noname   -0.226083
    3   C3        -2.478945040     0.000003176     1.449613148     C.2   1  noname   -0.063924
    4   C4        -1.273791435     0.000146538     0.743475431     C.2   1  noname   -0.226634
    5   C5        -1.277643883     0.000105211    -0.644843443     C.2   1  noname    0.372898
    6   C6        -2.501036577    -0.000092020    -1.313753025     C.2   1  noname   -0.380952
    7   C7         0.000012103     0.000320502    -1.448635835     C.3   1  noname   -0.626830
    8   C8         1.277713241     0.000105075    -0.644895931     C.2   1  noname    0.372893
    9   C9         2.501047677    -0.000092240    -1.313830052     C.2   1  noname   -0.380931
   10   C10        3.687363532    -0.000241347    -0.612301847     C.2   1  noname   -0.008461
   11   C11        3.680567116    -0.000190779     0.779894384     C.2   1  noname   -0.226099
   12   C12        2.478945685     0.000003730     1.449664851     C.2   1  noname   -0.063890
   13   C13        1.273857359     0.000146855     0.743487792     C.2   1  noname   -0.226656
   14   C14        0.000023031     0.000297787     1.514661310     C.2   1  noname    0.630121
   15   O15       -0.000002049     0.000475532     2.714430791     O.2   1  noname   -0.545318
   16   H16       -4.621929982    -0.000404543    -1.144768876       H   1  noname    0.127507
   17   H17       -4.606669906    -0.000309893     1.325598240       H   1  noname    0.151217
   18   H18       -2.442000104     0.000043125     2.521893688       H   1  noname    0.148745
   19   H19       -2.515759396    -0.000134412    -2.390160578       H   1  noname    0.180869
   20   H20       -0.000006129    -0.866402297    -2.105092407       H   1  noname    0.195849
   21   H21       -0.000005816     0.867458248    -2.104568601       H   1  noname    0.195780
   22   H22        2.515784884    -0.000135166    -2.390229077       H   1  noname    0.180883
   23   H23        4.621897496    -0.000405022    -1.144773126       H   1  noname    0.127504
   24   H24        4.606632166    -0.000309543     1.325600785       H   1  noname    0.151214
   25   H25        2.441983676     0.000043917     2.521932260       H   1  noname    0.148750


@<TRIPOS>BOND
    1      1      2    2
    2      2      3    1
    3      3      4    2
    4      4      5    1
    5      5      6    2
    6      5      7    1
    7      7      8    1
    8      8      9    2
    9      9     10    1
   10     10     11    2
   11     11     12    1
   12     12     13    2
   13     13     14    1
   14     14     15    2
   15      6      1    1
   16     14      4    1
   17     13      8    1
   18      1     16    1
   19      2     17    1
   20      3     18    1
   21      6     19    1
   22      7     20    1
   23      7     21    1
   24      9     22    1
   25     10     23    1
   26     11     24    1
   27     12     25    1
#
#	File Created by: Spartan'20 Export
#

@<TRIPOS>MOLECULE
M0408
15 16
SMALL
USER_CHARGES


@<TRIPOS>ATOM
    1   C1         0.470639718     0.000000000    -2.003847888     C.2   1  noname   -0.129669
    2   C2        -0.916202093     0.000000000    -1.922396712     C.2   1  noname   -0.134107
    3   C3        -1.569064668     0.000000000    -0.693433639     C.2   1  noname   -0.355023
    4   C4        -0.764646312     0.000000000     0.415303624     C.2   1  noname    0.376650
    5   C5         0.612544846     0.000000000     0.345774054     C.2   1  noname    0.258582
    6   C6         1.268605339     0.000000000    -0.864785906     C.2   1  noname   -0.361744
    7   N7         1.024267784     0.000000000     1.672749471   N.pl3   1  noname   -0.446861
    8   C8        -0.040643843     0.000000000     2.494104917     C.2   1  noname    0.388245
    9   S9        -0.050178115     0.000000000     4.140430349     S.2   1  noname   -0.409459
   10   O10       -1.134033596     0.000000000     1.730287599     O.3   1  noname   -0.306602
   11   H11        0.940578702     0.000000000    -2.970214929       H   1  noname    0.158762
   12   H12       -1.498033471     0.000000000    -2.825507481       H   1  noname    0.160413
   13   H13       -2.639122146     0.000000000    -0.611520337       H   1  noname    0.223336
   14   H14        2.340642455     0.000000000    -0.931499602       H   1  noname    0.217419
   15   H15        1.954645400     0.000000000     2.024556481       H   1  noname    0.360058


@<TRIPOS>BOND
    1      1      2    2
    2      2      3    1
    3      3      4    2
    4      4      5    1
    5      5      6    2
    6      5      7    1
    7      7      8    1
    8      8      9    2
    9      8     10    1
   10      6      1    1
   11     10      4    1
   12      1     11    1
   13      2     12    1
   14      3     13    1
   15      6     14    1
   16      7     15    1
#
#	File Created by: Spartan'20 Export
#

@<TRIPOS>MOLECULE
M0409
23 25
SMALL
USER_CHARGES


@<TRIPOS>ATOM
    1   C1        -3.644420285     0.000000000    -0.519878204     C.2   1  noname   -0.275694
    2   C2        -3.552334158     0.000000000     0.874127929     C.2   1  noname    0.025355
    3   C3        -2.329613911     0.000000000     1.502710383     C.2   1  noname   -0.407747
    4   C4        -1.173095491     0.000000000     0.728606590     C.2   1  noname    0.502223
    5   C5        -1.239850187     0.000000000    -0.655402061     C.2   1  noname   -0.300129
    6   C6        -2.495460301     0.000000000    -1.271244565     C.2   1  noname   -0.016865
    7   C7         0.000000278     0.000000000    -1.457599419     C.2   1  noname    0.643478
    8   O8        -0.000001540     0.000000000    -2.657955032     O.2   1  noname   -0.554522
    9   C9         1.239852593     0.000000000    -0.655411839     C.2   1  noname   -0.300118
   10   C10        2.495460017     0.000000000    -1.271250330     C.2   1  noname   -0.016872
   11   C11        3.644422088     0.000000000    -0.519874095     C.2   1  noname   -0.275692
   12   C12        3.552337493     0.000000000     0.874130057     C.2   1  noname    0.025353
   13   C13        2.329618191     0.000000000     1.502706394     C.2   1  noname   -0.407739
   14   C14        1.173101693     0.000000000     0.728595816     C.2   1  noname    0.502211
   15   O15        0.000003565     0.000000000     1.397605052     O.3   1  noname   -0.430191
   16   H16       -4.607351259     0.000000000    -0.996385515       H   1  noname    0.161263
   17   H17       -4.448869214     0.000000000     1.467868158       H   1  noname    0.129761
   18   H18       -2.241975181     0.000000000     2.572817141       H   1  noname    0.202887
   19   H19       -2.528431986     0.000000000    -2.344237617       H   1  noname    0.149562
   20   H20        2.528428129     0.000000000    -2.344241597       H   1  noname    0.149564
   21   H21        4.607352194     0.000000000    -0.996379749       H   1  noname    0.161263
   22   H22        4.448864059     0.000000000     1.467878643       H   1  noname    0.129762
   23   H23        2.241963212     0.000000000     2.572813861       H   1  noname    0.202886


@<TRIPOS>BOND
    1      1      2    2
    2      2      3    1
    3      3      4    2
    4      4      5    1
    5      5      6    2
    6      5      7    1
    7      7      8    2
    8      7      9    1
    9      9     10    2
   10     10     11    1
   11     11     12    2
   12     12     13    1
   13     13     14    2
   14     14     15    1
   15      6      1    1
   16     15      4    1
   17     14      9    1
   18      1     16    1
   19      2     17    1
   20      3     18    1
   21      6     19    1
   22     10     20    1
   23     11     21    1
   24     12     22    1
   25     13     23    1
#
#	File Created by: Spartan'20 Export
#

@<TRIPOS>MOLECULE
M0410
23 25
SMALL
USER_CHARGES


@<TRIPOS>ATOM
    1   C1        -3.700617555     0.000000000    -0.660660392     C.2   1  noname   -0.170018
    2   C2        -3.781977960     0.000000000     0.729967585     C.2   1  noname   -0.058550
    3   C3        -2.638685611     0.000000000     1.493978316     C.2   1  noname   -0.299757
    4   C4        -1.383796716     0.000000000     0.880414440     C.2   1  noname    0.211644
    5   C5        -1.288607472     0.000000000    -0.505814756     C.2   1  noname   -0.135674
    6   C6        -2.466364576     0.000000000    -1.263072153     C.2   1  noname   -0.101873
    7   C7         0.000004024     0.000000000    -1.251561893     C.2   1  noname    0.561471
    8   O8         0.000000935     0.000000000    -2.452517145     O.2   1  noname   -0.532873
    9   C9         1.288619529     0.000000000    -0.505827868     C.2   1  noname   -0.135669
   10   C10        2.466359679     0.000000000    -1.263088370     C.2   1  noname   -0.101872
   11   C11        3.700603171     0.000000000    -0.660662294     C.2   1  noname   -0.170023
   12   C12        3.781968322     0.000000000     0.729980391     C.2   1  noname   -0.058553
   13   C13        2.638693849     0.000000000     1.493995992     C.2   1  noname   -0.299745
   14   C14        1.383814690     0.000000000     0.880417415     C.2   1  noname    0.211631
   15   S15        0.000001454     0.000000000     1.966832389     S.3   1  noname   -0.197618
   16   H16       -4.594997508     0.000000000    -1.256064230       H   1  noname    0.141604
   17   H17       -4.741984185     0.000000000     1.214225960       H   1  noname    0.136637
   18   H18       -2.706352284     0.000000000     2.566958845       H   1  noname    0.202936
   19   H19       -2.374183826     0.000000000    -2.331317015       H   1  noname    0.157559
   20   H20        2.374178872     0.000000000    -2.331329874       H   1  noname    0.157563
   21   H21        4.594988142     0.000000000    -1.256061713       H   1  noname    0.141603
   22   H22        4.741977223     0.000000000     1.214232523       H   1  noname    0.136637
   23   H23        2.706357806     0.000000000     2.566973850       H   1  noname    0.202938


@<TRIPOS>BOND
    1      1      2    2
    2      2      3    1
    3      3      4    2
    4      4      5    1
    5      5      6    2
    6      5      7    1
    7      7      8    2
    8      7      9    1
    9      9     10    2
   10     10     11    1
   11     11     12    2
   12     12     13    1
   13     13     14    2
   14     14     15    1
   15      6      1    1
   16     15      4    1
   17     14      9    1
   18      1     16    1
   19      2     17    1
   20      3     18    1
   21      6     19    1
   22     10     20    1
   23     11     21    1
   24     12     22    1
   25     13     23    1
#
#	File Created by: Spartan'20 Export
#

@<TRIPOS>MOLECULE
M0411
23 25
SMALL
USER_CHARGES


@<TRIPOS>ATOM
    1   C1        -3.615706557     0.000000000    -0.572712721     C.2   1  noname   -0.171242
    2   C2        -3.556499998     0.000000000     0.859693504     C.2   1  noname   -0.058975
    3   C3        -2.372995289     0.000000000     1.504710878     C.2   1  noname   -0.356818
    4   C4        -1.140816478     0.000000000     0.768044097     C.2   1  noname    0.529228
    5   C5        -1.201071176     0.000000000    -0.654476674     C.2   1  noname    0.075836
    6   C6        -2.481903893     0.000000000    -1.300061475     C.2   1  noname   -0.222866
    7   C7         0.000031034     0.000000000    -1.347487648     C.2   1  noname   -0.371889
    8   C8         1.201118011     0.000000000    -0.654472915     C.2   1  noname    0.075882
    9   C9         2.481932140     0.000000000    -1.300074651     C.2   1  noname   -0.222869
   10   C10        3.615722833     0.000000000    -0.572733317     C.2   1  noname   -0.171215
   11   C11        3.556491035     0.000000000     0.859652806     C.2   1  noname   -0.059024
   12   C12        2.372940544     0.000000000     1.504690327     C.2   1  noname   -0.356779
   13   C13        1.140805143     0.000000000     0.768024297     C.2   1  noname    0.529137
   14   N14       -0.000036946     0.000000000     1.439656889     N.2   1  noname   -0.689886
   15   H15       -4.574906477     0.000000000    -1.058033639       H   1  noname    0.146228
   16   H16       -4.475589769     0.000000000     1.418010436       H   1  noname    0.132837
   17   H17       -2.308378938     0.000000000     2.576492971       H   1  noname    0.187102
   18   H18       -2.516824839     0.000000000    -2.375486818       H   1  noname    0.159406
   19   H19        0.000024349     0.000000000    -2.424350807       H   1  noname    0.220327
   20   H20        2.516859896     0.000000000    -2.375500691       H   1  noname    0.159406
   21   H21        4.574922809     0.000000000    -1.058046413       H   1  noname    0.146227
   22   H22        4.475568901     0.000000000     1.417990331       H   1  noname    0.132844
   23   H23        2.308313666     0.000000000     2.576471232       H   1  noname    0.187103


@<TRIPOS>BOND
    1      1      2    2
    2      2      3    1
    3      3      4    2
    4      4      5    1
    5      5      6    2
    6      5      7    1
    7      7      8    2
    8      8      9    1
    9      9     10    2
   10     10     11    1
   11     11     12    2
   12     12     13    1
   13     13     14    2
   14      6      1    1
   15     14      4    1
   16     13      8    1
   17      1     15    1
   18      2     16    1
   19      3     17    1
   20      6     18    1
   21      7     19    1
   22      9     20    1
   23     10     21    1
   24     11     22    1
   25     12     23    1
#
#	File Created by: Spartan'20 Export
#

@<TRIPOS>MOLECULE
M0412
17 18
SMALL
USER_CHARGES


@<TRIPOS>ATOM
    1   C1         0.112981421     0.000000000     2.419847428     C.2   1  noname   -0.206564
    2   C2        -1.249188791     0.000000000     2.128024027     C.2   1  noname   -0.031433
    3   C3        -1.692577383     0.000000000     0.821632673     C.2   1  noname   -0.403458
    4   C4        -0.758923999     0.000000000    -0.202061165     C.2   1  noname    0.507200
    5   C5         0.603296917     0.000000000     0.062757213     C.2   1  noname   -0.063436
    6   C6         1.028802357     0.000000000     1.391588404     C.2   1  noname   -0.175818
    7   C7         1.500740736     0.000000000    -1.079517532     C.2   1  noname   -0.024858
    8   C8         1.017085086     0.000000000    -2.318100653     C.2   1  noname   -0.525861
    9   C9        -0.429769774     0.000000000    -2.566510792     C.2   1  noname    0.982027
   10   O10       -0.930326451     0.000000000    -3.638760040     O.2   1  noname   -0.612727
   11   O11       -1.226113643     0.000000000    -1.472952365     O.3   1  noname   -0.504986
   12   H12        0.445873737     0.000000000     3.441337205       H   1  noname    0.156811
   13   H13       -1.966862102     0.000000000     2.928312611       H   1  noname    0.141886
   14   H14       -2.737884266     0.000000000     0.577076972       H   1  noname    0.217983
   15   H15        2.083595182     0.000000000     1.603578411       H   1  noname    0.164331
   16   H16        2.562034568     0.000000000    -0.903652094       H   1  noname    0.163870
   17   H17        1.637236406     0.000000000    -3.192600303       H   1  noname    0.215035


@<TRIPOS>BOND
    1      1      2    2
    2      2      3    1
    3      3      4    2
    4      4      5    1
    5      5      6    2
    6      5      7    1
    7      7      8    2
    8      8      9    1
    9      9     10    2
   10      9     11    1
   11      6      1    1
   12     11      4    1
   13      1     12    1
   14      2     13    1
   15      3     14    1
   16      6     15    1
   17      7     16    1
   18      8     17    1
#
#	File Created by: Spartan'20 Export
#

@<TRIPOS>MOLECULE
M0413
24 26
SMALL
USER_CHARGES


@<TRIPOS>ATOM
    1   C1        -3.541155616     0.000000000    -0.263681351     C.2   1  noname   -0.061333
    2   C2        -2.866277264     0.000000000    -1.492454179     C.2   1  noname   -0.183616
    3   C3        -1.498862854     0.000000000    -1.531262820     C.2   1  noname   -0.182499
    4   C4        -0.730692277     0.000000000    -0.348417758     C.2   1  noname   -0.000269
    5   C5        -1.413679010     0.000000000     0.878766825     C.2   1  noname    0.276618
    6   C6        -2.822177130     0.000000000     0.897218735     C.2   1  noname   -0.332304
    7   C7        -0.669323645     0.000000000     2.112050657     C.2   1  noname   -0.295116
    8   C8         0.669361906     0.000000000     2.112063967     C.2   1  noname   -0.295131
    9   C9         1.413685761     0.000000000     0.878778425     C.2   1  noname    0.276664
   10   C10        0.730704401     0.000000000    -0.348422541     C.2   1  noname   -0.000321
   11   C11        1.498875650     0.000000000    -1.531282374     C.2   1  noname   -0.182465
   12   C12        2.866272635     0.000000000    -1.492469385     C.2   1  noname   -0.183635
   13   C13        3.541125431     0.000000000    -0.263674286     C.2   1  noname   -0.061322
   14   C14        2.822158245     0.000000000     0.897245916     C.2   1  noname   -0.332330
   15   H15       -4.616192456     0.000000000    -0.238945952       H   1  noname    0.129426
   16   H16       -3.426189270     0.000000000    -2.410718634       H   1  noname    0.145801
   17   H17       -1.014631452     0.000000000    -2.488273287       H   1  noname    0.151792
   18   H18       -3.327333365     0.000000000     1.847457242       H   1  noname    0.170927
   19   H19       -1.216859798     0.000000000     3.038229745       H   1  noname    0.180578
   20   H20        1.216877156     0.000000000     3.038249486       H   1  noname    0.180587
   21   H21        1.014632735     0.000000000    -2.488286372       H   1  noname    0.151788
   22   H22        3.426192188     0.000000000    -2.410725059       H   1  noname    0.145808
   23   H23        4.616162944     0.000000000    -0.238925536       H   1  noname    0.129419
   24   H24        3.327325085     0.000000000     1.847478535       H   1  noname    0.170935


@<TRIPOS>BOND
    1      1      2    2
    2      2      3    1
    3      3      4    2
    4      4      5    1
    5      5      6    2
    6      5      7    1
    7      7      8    2
    8      8      9    1
    9      9     10    2
   10     10     11    1
   11     11     12    2
   12     12     13    1
   13     13     14    2
   14      6      1    1
   15     10      4    1
   16     14      9    1
   17      1     15    1
   18      2     16    1
   19      3     17    1
   20      6     18    1
   21      7     19    1
   22      8     20    1
   23     11     21    1
   24     12     22    1
   25     13     23    1
   26     14     24    1
#
#	File Created by: Spartan'20 Export
#

@<TRIPOS>MOLECULE
M0414
23 25
SMALL
USER_CHARGES


@<TRIPOS>ATOM
    1   C1        -0.387252465     0.000000000    -3.450925050     C.2   1  noname    0.000766
    2   C2        -1.608855013     0.000000000    -2.759094784     C.2   1  noname   -0.266107
    3   C3        -1.627871941     0.000000000    -1.391257865     C.2   1  noname   -0.002589
    4   C4        -0.424958493     0.000000000    -0.660325385     C.2   1  noname   -0.242408
    5   C5         0.795769579     0.000000000    -1.349447754     C.2   1  noname    0.395595
    6   C6         0.790694064     0.000000000    -2.758221549     C.2   1  noname   -0.400820
    7   C7         2.033711372     0.000000000    -0.609542553     C.2   1  noname   -0.378332
    8   C8         2.040766812     0.000000000     0.730329878     C.2   1  noname   -0.185213
    9   C9         0.808176086     0.000000000     1.474394512     C.2   1  noname   -0.058000
   10   C10       -0.416198358     0.000000000     0.794225221     C.2   1  noname    0.517536
   11   N11       -1.591228720     0.000000000     1.441547892     N.2   1  noname   -0.602348
   12   C12       -1.592631120     0.000000000     2.743408086     C.2   1  noname    0.311173
   13   C13       -0.427758732     0.000000000     3.524536962     C.2   1  noname   -0.373447
   14   C14        0.775206172     0.000000000     2.879057857     C.2   1  noname   -0.042886
   15   H15       -0.381257819     0.000000000    -4.526460855       H   1  noname    0.121825
   16   H16       -2.533038106     0.000000000    -3.309115342       H   1  noname    0.156711
   17   H17       -2.555782555     0.000000000    -0.853951430       H   1  noname    0.114485
   18   H18        1.729718513     0.000000000    -3.283907962       H   1  noname    0.180419
   19   H19        2.957836942     0.000000000    -1.160329412       H   1  noname    0.195497
   20   H20        2.968617191     0.000000000     1.275289350       H   1  noname    0.164487
   21   H21       -2.557769731     0.000000000     3.221134410       H   1  noname    0.074413
   22   H22       -0.494516040     0.000000000     4.596648183       H   1  noname    0.174979
   23   H23        1.698622360     0.000000000     3.432007589       H   1  noname    0.144264


@<TRIPOS>BOND
    1      1      2    2
    2      2      3    1
    3      3      4    2
    4      4      5    1
    5      5      6    2
    6      5      7    1
    7      7      8    2
    8      8      9    1
    9      9     10    2
   10     10     11    1
   11     11     12    2
   12     12     13    1
   13     13     14    2
   14      6      1    1
   15     10      4    1
   16     14      9    1
   17      1     15    1
   18      2     16    1
   19      3     17    1
   20      6     18    1
   21      7     19    1
   22      8     20    1
   23     12     21    1
   24     13     22    1
   25     14     23    1
#
#	File Created by: Spartan'20 Export
#

@<TRIPOS>MOLECULE
M0415
17 18
SMALL
USER_CHARGES


@<TRIPOS>ATOM
    1   C1         0.564305175     0.000000000     2.329810349     C.2   1  noname   -0.183129
    2   C2        -0.853021967     0.000000000     2.304225491     C.2   1  noname   -0.032053
    3   C3        -1.523180898     0.000000000     1.123001358     C.2   1  noname   -0.453406
    4   C4        -0.811658524     0.000000000    -0.104676752     C.2   1  noname    0.659057
    5   C5         0.594537607     0.000000000    -0.080528313     C.2   1  noname   -0.048965
    6   C6         1.268422801     0.000000000     1.168565268     C.2   1  noname   -0.224900
    7   C7         1.269684195     0.000000000    -1.327128889     C.2   1  noname   -0.058626
    8   C8         0.545789389     0.000000000    -2.473330492     C.2   1  noname   -0.400018
    9   C9        -0.868557968     0.000000000    -2.377787719     C.2   1  noname    0.372921
   10   N10       -1.519350700     0.000000000    -1.262169621     N.2   1  noname   -0.683714
   11   H11        1.076888295     0.000000000     3.275074299       H   1  noname    0.150182
   12   H12       -1.396111212     0.000000000     3.232493752       H   1  noname    0.133695
   13   H13       -2.596432264     0.000000000     1.080313335       H   1  noname    0.208471
   14   H14        2.344626520     0.000000000     1.180100909       H   1  noname    0.163190
   15   H15        2.345736305     0.000000000    -1.348466244       H   1  noname    0.151548
   16   H16        1.015746206     0.000000000    -3.439495092       H   1  noname    0.179285
   17   H17       -1.457422961     0.000000000    -3.280001639       H   1  noname    0.066464


@<TRIPOS>BOND
    1      1      2    2
    2      2      3    1
    3      3      4    2
    4      4      5    1
    5      5      6    2
    6      5      7    1
    7      7      8    2
    8      8      9    1
    9      9     10    2
   10      6      1    1
   11     10      4    1
   12      1     11    1
   13      2     12    1
   14      3     13    1
   15      6     14    1
   16      7     15    1
   17      8     16    1
   18      9     17    1
#
#	File Created by: Spartan'20 Export
#

@<TRIPOS>MOLECULE
M0416
23 25
SMALL
USER_CHARGES


@<TRIPOS>ATOM
    1   C1        -0.097571735     0.000000000     3.486044712     C.2   1  noname   -0.096040
    2   C2        -1.343886736     0.000000000     2.839968920     C.2   1  noname   -0.107743
    3   C3        -1.427590681     0.000000000     1.474441089     C.2   1  noname   -0.280174
    4   C4        -0.260591966     0.000000000     0.683898168     C.2   1  noname    0.244639
    5   C5         0.976924759     0.000000000     1.334664856     C.2   1  noname    0.008347
    6   C6         1.046191634     0.000000000     2.738658907     C.2   1  noname   -0.247575
    7   C7         2.174651945     0.000000000     0.531298428     C.2   1  noname    0.173549
    8   N8         2.194234306     0.000000000    -0.741294902     N.2   1  noname   -0.629090
    9   C9         0.991824896     0.000000000    -1.418529757     C.2   1  noname    0.666663
   10   C10       -0.251092566     0.000000000    -0.771110537     C.2   1  noname   -0.286583
   11   C11       -1.417321058     0.000000000    -1.562060738     C.2   1  noname   -0.073710
   12   C12       -1.342673003     0.000000000    -2.927366823     C.2   1  noname   -0.264448
   13   C13       -0.094001611     0.000000000    -3.567830300     C.2   1  noname    0.017245
   14   C14        1.051475105     0.000000000    -2.823378499     C.2   1  noname   -0.454751
   15   H15       -0.049210344     0.000000000     4.559687706       H   1  noname    0.132179
   16   H16       -2.244799232     0.000000000     3.426988494       H   1  noname    0.137312
   17   H17       -2.395515797     0.000000000     1.012075998       H   1  noname    0.170950
   18   H18        2.010436905     0.000000000     3.215899338       H   1  noname    0.158529
   19   H19        3.126551031     0.000000000     1.039059193       H   1  noname    0.111496
   20   H20       -2.383324399     0.000000000    -1.094577624       H   1  noname    0.137671
   21   H21       -2.244504502     0.000000000    -3.512698722       H   1  noname    0.157352
   22   H22       -0.042469353     0.000000000    -4.641705617       H   1  noname    0.122256
   23   H23        2.022262401     0.000000000    -3.282132288       H   1  noname    0.201924


@<TRIPOS>BOND
    1      1      2    2
    2      2      3    1
    3      3      4    2
    4      4      5    1
    5      5      6    2
    6      5      7    1
    7      7      8    2
    8      8      9    1
    9      9     10    2
   10     10     11    1
   11     11     12    2
   12     12     13    1
   13     13     14    2
   14      6      1    1
   15     10      4    1
   16     14      9    1
   17      1     15    1
   18      2     16    1
   19      3     17    1
   20      6     18    1
   21      7     19    1
   22     11     20    1
   23     12     21    1
   24     13     22    1
   25     14     23    1
#
#	File Created by: Spartan'20 Export
#

@<TRIPOS>MOLECULE
M0417
16 17
SMALL
USER_CHARGES


@<TRIPOS>ATOM
    1   C1         0.592250361     0.000000000    -2.123457124     C.2   1  noname   -0.197956
    2   C2        -0.826241548     0.000000000    -2.075926125     C.2   1  noname    0.012226
    3   C3        -1.491490429     0.000000000    -0.890794051     C.2   1  noname   -0.508498
    4   C4        -0.759883974     0.000000000     0.322903624     C.2   1  noname    0.814211
    5   C5         0.639887692     0.000000000     0.275972027     C.2   1  noname   -0.305867
    6   C6         1.311380400     0.000000000    -0.971992028     C.2   1  noname   -0.144268
    7   C7         1.294098579     0.000000000     1.531655386     C.2   1  noname    0.404141
    8   N8         0.655608237     0.000000000     2.655109278     N.2   1  noname   -0.726515
    9   C9        -0.694968499     0.000000000     2.577692051     C.2   1  noname    0.693217
   10   N10       -1.416573777     0.000000000     1.509303273     N.2   1  noname   -0.815137
   11   H11        1.088742097     0.000000000    -3.076684538       H   1  noname    0.150735
   12   H12       -1.378166230     0.000000000    -2.998938075       H   1  noname    0.132869
   13   H13       -2.563993295     0.000000000    -0.839741672       H   1  noname    0.223619
   14   H14        2.387235465     0.000000000    -0.992048271       H   1  noname    0.150881
   15   H15        2.371544560     0.000000000     1.575556922       H   1  noname    0.083765
   16   H16       -1.209429638     0.000000000     3.521389322       H   1  noname    0.032575


@<TRIPOS>BOND
    1      1      2    2
    2      2      3    1
    3      3      4    2
    4      4      5    1
    5      5      6    2
    6      5      7    1
    7      7      8    2
    8      8      9    1
    9      9     10    2
   10      6      1    1
   11     10      4    1
   12      1     11    1
   13      2     12    1
   14      3     13    1
   15      6     14    1
   16      7     15    1
   17      9     16    1
#
#	File Created by: Spartan'20 Export
#

@<TRIPOS>MOLECULE
M0418
22 24
SMALL
USER_CHARGES


@<TRIPOS>ATOM
    1   C1        -3.540696550     0.000000000    -0.717902530     C.2   1  noname   -0.128126
    2   C2        -3.540673602     0.000000000     0.717975550     C.2   1  noname   -0.128148
    3   C3        -2.384190725     0.000000000     1.408517786     C.2   1  noname   -0.341467
    4   C4        -1.130217907     0.000000000     0.712146040     C.2   1  noname    0.410587
    5   C5        -1.130260860     0.000000000    -0.712231538     C.2   1  noname    0.410669
    6   C6        -2.384229591     0.000000000    -1.408560069     C.2   1  noname   -0.341530
    7   N7        -0.000097911     0.000000000    -1.396810961     N.2   1  noname   -0.595524
    8   C8         1.130207061     0.000000000    -0.712216224     C.2   1  noname    0.410476
    9   C9         2.384193156     0.000000000    -1.408510987     C.2   1  noname   -0.341462
   10   C10        3.540775059     0.000000000    -0.717857649     C.2   1  noname   -0.128191
   11   C11        3.540742724     0.000000000     0.717958762     C.2   1  noname   -0.128139
   12   C12        2.384180969     0.000000000     1.408488184     C.2   1  noname   -0.341456
   13   C13        1.130237399     0.000000000     0.712106783     C.2   1  noname    0.410571
   14   N14        0.000006091     0.000000000     1.396695076     N.2   1  noname   -0.595532
   15   H15       -4.481848321     0.000000000    -1.237437983       H   1  noname    0.158875
   16   H16       -4.481795446     0.000000000     1.237550722       H   1  noname    0.158884
   17   H17       -2.357861768     0.000000000     2.482012969       H   1  noname    0.197925
   18   H18       -2.357970446     0.000000000    -2.482051355       H   1  noname    0.197948
   19   H19        2.357913460     0.000000000    -2.482009777       H   1  noname    0.197934
   20   H20        4.481903973     0.000000000    -1.237421239       H   1  noname    0.158898
   21   H21        4.481838642     0.000000000     1.237566520       H   1  noname    0.158886
   22   H22        2.357844595     0.000000000     2.481991920       H   1  noname    0.197923


@<TRIPOS>BOND
    1      1      2    2
    2      2      3    1
    3      3      4    2
    4      4      5    1
    5      5      6    2
    6      5      7    1
    7      7      8    2
    8      8      9    1
    9      9     10    2
   10     10     11    1
   11     11     12    2
   12     12     13    1
   13     13     14    2
   14      6      1    1
   15     14      4    1
   16     13      8    1
   17      1     15    1
   18      2     16    1
   19      3     17    1
   20      6     18    1
   21      9     19    1
   22     10     20    1
   23     11     21    1
   24     12     22    1
#
#	File Created by: Spartan'20 Export
#

@<TRIPOS>MOLECULE
M0419
14 15
SMALL
USER_CHARGES


@<TRIPOS>ATOM
    1   C1         0.338603330     0.000000000    -1.891301340     C.2   1  noname   -0.010399
    2   C2        -1.043934193     0.000000000    -1.675948249     C.2   1  noname   -0.260402
    3   C3        -1.562059266     0.000000000    -0.399368891     C.2   1  noname   -0.192463
    4   C4        -0.671067372     0.000000000     0.668094899     C.2   1  noname   -0.009445
    5   C5         0.706656646     0.000000000     0.463812740     C.2   1  noname    0.519228
    6   C6         1.217829077     0.000000000    -0.832469126     C.2   1  noname   -0.416209
    7   N7         1.477148135     0.000000000     1.620082314     N.2   1  noname   -0.559882
    8   C8         0.738745074     0.000000000     2.647239387     C.2   1  noname    0.121897
    9   S9        -0.988893454     0.000000000     2.385101867     S.3   1  noname   -0.067776
   10   H10        0.715486388     0.000000000    -2.898064469       H   1  noname    0.126704
   11   H11       -1.711511846     0.000000000    -2.518623661       H   1  noname    0.168534
   12   H12       -2.624082283     0.000000000    -0.235609613       H   1  noname    0.196543
   13   H13        2.281508321     0.000000000    -0.981450645       H   1  noname    0.210225
   14   H14        1.125571443     0.000000000     3.648504787       H   1  noname    0.173444


@<TRIPOS>BOND
    1      1      2    2
    2      2      3    1
    3      3      4    2
    4      4      5    1
    5      5      6    2
    6      5      7    1
    7      7      8    2
    8      8      9    1
    9      6      1    1
   10      9      4    1
   11      1     10    1
   12      2     11    1
   13      3     12    1
   14      6     13    1
   15      8     14    1
#
#	File Created by: Spartan'20 Export
#

@<TRIPOS>MOLECULE
M0420
18 19
SMALL
USER_CHARGES


@<TRIPOS>ATOM
    1   C1         2.416178301     0.000000000     0.708296571     C.2   1  noname   -0.119571
    2   C2         2.416165446     0.000000000    -0.708263159     C.2   1  noname   -0.119569
    3   C3         1.242849703     0.000000000    -1.392597529     C.2   1  noname   -0.366530
    4   C4        -0.000018047     0.000000000    -0.704712496     C.2   1  noname    0.297474
    5   C5        -1.242883369     0.000000000    -1.392608809     C.2   1  noname   -0.366507
    6   C6        -2.416154730     0.000000000    -0.708292070     C.2   1  noname   -0.119566
    7   C7        -2.416145478     0.000000000     0.708278638     C.2   1  noname   -0.119569
    8   C8        -1.242869063     0.000000000     1.392596738     C.2   1  noname   -0.366504
    9   C9        -0.000003406     0.000000000     0.704711082     C.2   1  noname    0.297443
   10   C10        1.242885112     0.000000000     1.392599664     C.2   1  noname   -0.366498
   11   H11        3.352369204     0.000000000     1.237920908       H   1  noname    0.148733
   12   H12        3.352349933     0.000000000    -1.237905352       H   1  noname    0.148729
   13   H13        1.240297556     0.000000000    -2.468965130       H   1  noname    0.188625
   14   H14       -1.240334612     0.000000000    -2.468971256       H   1  noname    0.188620
   15   H15       -3.352350951     0.000000000    -1.237914470       H   1  noname    0.148727
   16   H16       -3.352342019     0.000000000     1.237902076       H   1  noname    0.148726
   17   H17       -1.240327371     0.000000000     2.468958052       H   1  noname    0.188619
   18   H18        1.240333792     0.000000000     2.468966543       H   1  noname    0.188616


@<TRIPOS>BOND
    1      1      2    2
    2      2      3    1
    3      3      4    2
    4      4      5    1
    5      5      6    2
    6      6      7    1
    7      7      8    2
    8      8      9    1
    9      9     10    2
   10     10      1    1
   11      9      4    1
   12      1     11    1
   13      2     12    1
   14      3     13    1
   15      5     14    1
   16      6     15    1
   17      7     16    1
   18      8     17    1
   19     10     18    1
#
#	File Created by: Spartan'20 Export
#

@<TRIPOS>MOLECULE
M0421
17 18
SMALL
USER_CHARGES


@<TRIPOS>ATOM
    1   C1         0.642626186     0.000000000    -2.221833566     C.2   1  noname   -0.031522
    2   C2        -0.775114551     0.000000000    -2.218862098     C.2   1  noname   -0.145140
    3   C3        -1.453471155     0.000000000    -1.042190224     C.2   1  noname   -0.224876
    4   C4        -0.747350522     0.000000000     0.186961893     C.2   1  noname   -0.136633
    5   C5        -1.405041990     0.000000000     1.447126283     C.2   1  noname    0.304103
    6   N6        -0.795696364     0.000000000     2.585087228     N.2   1  noname   -0.636129
    7   C7         0.558970665     0.000000000     2.577530246     C.2   1  noname    0.423295
    8   C8         1.307209092     0.000000000     1.446558235     C.2   1  noname   -0.687634
    9   C9         0.656170625     0.000000000     0.185804000     C.2   1  noname    0.574214
   10   C10        1.341993847     0.000000000    -1.057040237     C.2   1  noname   -0.449847
   11   H11        1.164922322     0.000000000    -3.162035515       H   1  noname    0.132710
   12   H12       -1.305772412     0.000000000    -3.153816140       H   1  noname    0.140987
   13   H13       -2.529448663     0.000000000    -1.029030732       H   1  noname    0.162944
   14   H14       -2.483146785     0.000000000     1.471228680       H   1  noname    0.079179
   15   H15        1.024604436     0.000000000     3.546219783       H   1  noname    0.060148
   16   H16        2.380907550     0.000000000     1.501524558       H   1  noname    0.229709
   17   H17        2.417637719     0.000000000    -1.063232394       H   1  noname    0.204492


@<TRIPOS>BOND
    1      1      2    2
    2      2      3    1
    3      3      4    2
    4      4      5    1
    5      5      6    2
    6      6      7    1
    7      7      8    2
    8      8      9    1
    9      9     10    2
   10     10      1    1
   11      9      4    1
   12      1     11    1
   13      2     12    1
   14      3     13    1
   15      5     14    1
   16      7     15    1
   17      8     16    1
   18     10     17    1
#
#	File Created by: Spartan'20 Export
#

@<TRIPOS>MOLECULE
M0422
16 17
SMALL
USER_CHARGES


@<TRIPOS>ATOM
    1   C1         0.706677997     0.000000000    -2.004944149     C.2   1  noname   -0.055233
    2   C2        -0.706722249     0.000000000    -2.004969572     C.2   1  noname   -0.055265
    3   C3        -1.400577895     0.000000000    -0.832187977     C.2   1  noname   -0.379686
    4   C4        -0.695805686     0.000000000     0.391044228     C.2   1  noname    0.191524
    5   C5        -1.317459409     0.000000000     1.676347159     C.2   1  noname    0.103248
    6   N6        -0.674776165     0.000000000     2.787346920     N.2   1  noname   -0.278958
    7   N7         0.674820503     0.000000000     2.787347587     N.2   1  noname   -0.278942
    8   C8         1.317479525     0.000000000     1.676376317     C.2   1  noname    0.103254
    9   C9         0.695805768     0.000000000     0.391071646     C.2   1  noname    0.191591
   10   C10        1.400565546     0.000000000    -0.832132941     C.2   1  noname   -0.379754
   11   H11        1.231817911     0.000000000    -2.942609716       H   1  noname    0.134058
   12   H12       -1.231835480     0.000000000    -2.942645303       H   1  noname    0.134069
   13   H13       -2.475814042     0.000000000    -0.827832785       H   1  noname    0.199160
   14   H14       -2.391064728     0.000000000     1.752782998       H   1  noname    0.085884
   15   H15        2.391086208     0.000000000     1.752800201       H   1  noname    0.085878
   16   H16        2.475802198     0.000000000    -0.827794612       H   1  noname    0.199173


@<TRIPOS>BOND
    1      1      2    2
    2      2      3    1
    3      3      4    2
    4      4      5    1
    5      5      6    2
    6      6      7    1
    7      7      8    2
    8      8      9    1
    9      9     10    2
   10     10      1    1
   11      9      4    1
   12      1     11    1
   13      2     12    1
   14      3     13    1
   15      5     14    1
   16      8     15    1
   17     10     16    1
#
#	File Created by: Spartan'20 Export
#

@<TRIPOS>MOLECULE
M0423
14 14
SMALL
USER_CHARGES


@<TRIPOS>ATOM
    1   C1         0.668486700     0.000000000    -1.486821621     C.2   1  noname   -0.157076
    2   C2        -0.668485510     0.000000000    -1.486822413     C.2   1  noname   -0.157077
    3   C3        -1.562116236     0.000000000    -0.346080759     C.2   1  noname    0.071974
    4   C4        -1.292657567     0.000000000     0.962523691     C.2   1  noname   -0.489503
    5   C5        -0.000000592     0.000000000     1.673276024     C.2   1  noname    0.946868
    6   O6        -0.000000433     0.000000000     2.877168469     O.2   1  noname   -0.645963
    7   C7         1.292656382     0.000000000     0.962523489     C.2   1  noname   -0.489502
    8   C8         1.562116010     0.000000000    -0.346080838     C.2   1  noname    0.071974
    9   H9         1.157950480     0.000000000    -2.444901643       H   1  noname    0.131872
   10   H10       -1.157948275     0.000000000    -2.444902683       H   1  noname    0.131872
   11   H11       -2.606600941     0.000000000    -0.607494121       H   1  noname    0.107709
   12   H12       -2.121399691     0.000000000     1.647552648       H   1  noname    0.184572
   13   H13        2.121398685     0.000000000     1.647552356       H   1  noname    0.184572
   14   H14        2.606600989     0.000000000    -0.607492600       H   1  noname    0.107709


@<TRIPOS>BOND
    1      1      2    2
    2      2      3    1
    3      3      4    2
    4      4      5    1
    5      5      6    2
    6      5      7    1
    7      7      8    2
    8      8      1    1
    9      1      9    1
   10      2     10    1
   11      3     11    1
   12      4     12    1
   13      7     13    1
   14      8     14    1
#
#	File Created by: Spartan'20 Export
#

@<TRIPOS>MOLECULE
M0424
12 12
SMALL
USER_CHARGES


@<TRIPOS>ATOM
    1   C1        -1.200037966     0.000000000     0.693220203     C.2   1  noname   -0.126651
    2   C2        -1.200110679     0.000000000    -0.693344331     C.2   1  noname   -0.126603
    3   C3        -0.000072394     0.000000000    -1.386564026     C.2   1  noname   -0.125369
    4   C4         1.200037207     0.000000000    -0.693216817     C.2   1  noname   -0.126631
    5   C5         1.200117461     0.000000000     0.693347059     C.2   1  noname   -0.126624
    6   C6         0.000071602     0.000000000     1.386562841     C.2   1  noname   -0.125350
    7   H7        -2.131807262     0.000000000     1.231038248       H   1  noname    0.126222
    8   H8        -2.131881986     0.000000000    -1.231126991       H   1  noname    0.126243
    9   H9        -0.000039779     0.000000000    -2.462313818       H   1  noname    0.126151
   10   H10        2.131804040     0.000000000    -1.231040300       H   1  noname    0.126218
   11   H11        2.131889501     0.000000000     1.231125008       H   1  noname    0.126249
   12   H12        0.000030256     0.000000000     2.462312923       H   1  noname    0.126146


@<TRIPOS>BOND
    1      1      2    2
    2      2      3    1
    3      3      4    2
    4      4      5    1
    5      5      6    2
    6      6      1    1
    7      1      7    1
    8      2      8    1
    9      3      9    1
   10      4     10    1
   11      5     11    1
   12      6     12    1
#
#	File Created by: Spartan'20 Export
#

@<TRIPOS>MOLECULE
M0425
12 12
SMALL
USER_CHARGES


@<TRIPOS>ATOM
    1   C1        -0.000000085     0.000000000    -1.433502221     C.2   1  noname   -0.149448
    2   C2        -1.185232413     0.000000000    -0.719500982     C.2   1  noname   -0.128207
    3   C3        -1.157538254     0.000000000     0.656548181     C.2   1  noname   -0.179892
    4   N4         0.000000261     0.000000000     1.331887753       N   1  noname    0.560279
    5   O5         0.000003909     0.000000000     2.606920741       O   1  noname   -0.651971
    6   C6         1.157535814     0.000000000     0.656546400     C.2   1  noname   -0.179890
    7   C7         1.185230851     0.000000000    -0.719498733     C.2   1  noname   -0.128206
    8   H8         0.000001287     0.000000000    -2.507099006       H   1  noname    0.158191
    9   H9        -2.137183649     0.000000000    -1.215996655       H   1  noname    0.161398
   10   H10       -2.026864245     0.000000000     1.279846246       H   1  noname    0.188175
   11   H11        2.026864250     0.000000000     1.279842238       H   1  noname    0.188174
   12   H12        2.137182275     0.000000000    -1.215993964       H   1  noname    0.161398


@<TRIPOS>BOND
    1      1      2    2
    2      2      3    1
    3      3      4    2
    4      4      5    1
    5      4      6    1
    6      6      7    2
    7      7      1    1
    8      1      8    1
    9      2      9    1
   10      3     10    1
   11      6     11    1
   12      7     12    1
#
#	File Created by: Spartan'20 Export
#

@<TRIPOS>MOLECULE
M0426
11 11
SMALL
USER_CHARGES


@<TRIPOS>ATOM
    1   C1         0.972323460     0.000000000     0.738148946     C.2   1  noname    0.274371
    2   C2        -0.282494411     0.000000000     1.328342922     C.2   1  noname   -0.551967
    3   C3        -1.388200166     0.000000000     0.501864351     C.2   1  noname    0.490735
    4   N4        -1.308428082     0.000000000    -0.820848153     N.2   1  noname   -0.610995
    5   C5        -0.119246313     0.000000000    -1.354198820     C.2   1  noname    0.460491
    6   C6         1.069105410     0.000000000    -0.639180348     C.2   1  noname   -0.442797
    7   Br7       -0.039056940     0.000000000    -3.258913588      Br   1  noname   -0.102238
    8   H8         1.862763684     0.000000000     1.340706963       H   1  noname    0.084635
    9   H9        -0.399833201     0.000000000     2.395705959       H   1  noname    0.197073
   10   H10       -2.382416820     0.000000000     0.910503005       H   1  noname    0.036260
   11   H11        2.015483378     0.000000000    -1.142131238       H   1  noname    0.164433


@<TRIPOS>BOND
    1      1      2    2
    2      2      3    1
    3      3      4    2
    4      4      5    1
    5      5      6    2
    6      5      7    1
    7      6      1    1
    8      1      8    1
    9      2      9    1
   10      3     10    1
   11      6     11    1
#
#	File Created by: Spartan'20 Export
#

@<TRIPOS>MOLECULE
M0427
12 12
SMALL
USER_CHARGES


@<TRIPOS>ATOM
    1   C1         0.993344950     0.000000000    -1.017194665     C.2   1  noname    0.218830
    2   C2        -0.248144595     0.000000000    -1.622098298     C.2   1  noname   -0.451637
    3   C3        -1.377389884     0.000000000    -0.814346998     C.2   1  noname    0.377561
    4   N4        -1.327329500     0.000000000     0.500821773     N.2   1  noname   -0.614953
    5   C5        -0.133622775     0.000000000     1.068020113     C.2   1  noname    0.664607
    6   C6         1.060128845     0.000000000     0.366511531     C.2   1  noname   -0.561341
    7   C7        -0.105289823     0.000000000     2.521357336     C.1   1  noname    0.134898
    8   N8        -0.043922842     0.000000000     3.654724413     N.1   1  noname   -0.370122
    9   H9         1.893267206     0.000000000    -1.604583761       H   1  noname    0.105586
   10   H10       -0.348775807     0.000000000    -2.691270826       H   1  noname    0.190027
   11   H11       -2.360227666     0.000000000    -1.250066468       H   1  noname    0.073741
   12   H12        1.997961891     0.000000000     0.888125850       H   1  noname    0.232803


@<TRIPOS>BOND
    1      1      2    2
    2      2      3    1
    3      3      4    2
    4      4      5    1
    5      5      6    2
    6      5      7    1
    7      7      8    3
    8      6      1    1
    9      1      9    1
   10      2     10    1
   11      3     11    1
   12      6     12    1
#
#	File Created by: Spartan'20 Export
#

@<TRIPOS>MOLECULE
M0428
11 11
SMALL
USER_CHARGES


@<TRIPOS>ATOM
    1   C1         0.959779381     0.000000000     0.740858525     C.2   1  noname    0.248212
    2   C2        -0.305584570     0.000000000     1.308968310     C.2   1  noname   -0.525626
    3   C3        -1.395278174     0.000000000     0.461841686     C.2   1  noname    0.441442
    4   N4        -1.292810415     0.000000000    -0.858793155     N.2   1  noname   -0.643757
    5   C5        -0.094145477     0.000000000    -1.371480490     C.2   1  noname    0.641527
    6   C6         1.080505312     0.000000000    -0.633856010     C.2   1  noname   -0.532908
    7   Cl7        0.012632259     0.000000000    -3.110344107      Cl   1  noname   -0.179156
    8   H8         1.839604293     0.000000000     1.358940155       H   1  noname    0.097483
    9   H9        -0.442491288     0.000000000     2.374058441       H   1  noname    0.195376
   10   H10       -2.396788798     0.000000000     0.852797255       H   1  noname    0.056306
   11   H11        2.034577478     0.000000000    -1.122990611       H   1  noname    0.201101


@<TRIPOS>BOND
    1      1      2    2
    2      2      3    1
    3      3      4    2
    4      4      5    1
    5      5      6    2
    6      5      7    1
    7      6      1    1
    8      1      8    1
    9      2      9    1
   10      3     10    1
   11      6     11    1
#
#	File Created by: Spartan'20 Export
#

@<TRIPOS>MOLECULE
M0429
11 11
SMALL
USER_CHARGES


@<TRIPOS>ATOM
    1   C1         0.972439009     0.000000000    -0.687370880     C.2   1  noname    0.278397
    2   C2        -0.288955915     0.000000000    -1.273785178     C.2   1  noname   -0.598870
    3   C3        -1.386727415     0.000000000    -0.441204125     C.2   1  noname    0.428490
    4   N4        -1.301041480     0.000000000     0.884054025     N.2   1  noname   -0.709658
    5   C5        -0.112318614     0.000000000     1.398068064     C.2   1  noname    0.932956
    6   C6         1.076862888     0.000000000     0.685545757     C.2   1  noname   -0.682261
    7   F7        -0.041965073     0.000000000     2.715279440       F   1  noname   -0.296560
    8   H8         1.858599693     0.000000000    -1.296147869       H   1  noname    0.107908
    9   H9        -0.411236362     0.000000000    -2.340385736       H   1  noname    0.217784
   10   H10       -2.383025569     0.000000000    -0.845129015       H   1  noname    0.077886
   11   H11        2.017368839     0.000000000     1.201075517       H   1  noname    0.243927


@<TRIPOS>BOND
    1      1      2    2
    2      2      3    1
    3      3      4    2
    4      4      5    1
    5      5      6    2
    6      5      7    1
    7      6      1    1
    8      1      8    1
    9      2      9    1
   10      3     10    1
   11      6     11    1
#
#	File Created by: Spartan'20 Export
#

@<TRIPOS>MOLECULE
M0430
13 13
SMALL
USER_CHARGES


@<TRIPOS>ATOM
    1   C1        -1.148501645     1.036803637    -0.044451377     C.2   1  noname    0.233515
    2   C2        -1.796038989    -0.193892252    -0.103604068     C.2   1  noname   -0.566083
    3   C3        -1.007536209    -1.321526192    -0.050556762     C.2   1  noname    0.371203
    4   N4         0.313902537    -1.302941748     0.047310673     N.2   1  noname   -0.735669
    5   C5         0.918959409    -0.133337118     0.108950493     C.2   1  noname    1.002186
    6   C6         0.219698354     1.080892327     0.065651101     C.2   1  noname   -0.704281
    7   N7         2.288779311    -0.152942471     0.261646372     N.3   1  noname   -1.032468
    8   H8        -1.713116743     1.951598034    -0.080421028       H   1  noname    0.111166
    9   H9        -2.863350017    -0.268304789    -0.187751465       H   1  noname    0.201740
   10   H10       -1.454349188    -2.299605233    -0.093364876       H   1  noname    0.083252
   11   H11        0.747650983     2.014717378     0.128638482       H   1  noname    0.233486
   12   H12        2.702908564    -1.035677982     0.052769441       H   1  noname    0.406178
   13   H13        2.790993633     0.624216409    -0.104816988       H   1  noname    0.395774


@<TRIPOS>BOND
    1      1      2    2
    2      2      3    1
    3      3      4    2
    4      4      5    1
    5      5      6    2
    6      5      7    1
    7      6      1    1
    8      1      8    1
    9      2      9    1
   10      3     10    1
   11      6     11    1
   12      7     12    1
   13      7     13    1
#
#	File Created by: Spartan'20 Export
#

@<TRIPOS>MOLECULE
M0431
20 21
SMALL
USER_CHARGES


@<TRIPOS>ATOM
    1   C1         1.170073951     0.000000000     2.828552106     C.2   1  noname    0.144660
    2   C2        -0.057834603     0.000000000     3.466609215     C.2   1  noname   -0.443035
    3   C3        -1.195035908     0.000000000     2.677802431     C.2   1  noname    0.374566
    4   N4        -1.165774713     0.000000000     1.359160712     N.2   1  noname   -0.624314
    5   C5         0.008477850     0.000000000     0.746940669     C.2   1  noname    0.437214
    6   C6         1.210744768     0.000000000     1.447634590     C.2   1  noname   -0.391604
    7   C7        -0.008641433     0.000000000    -0.746973656     C.2   1  noname    0.437157
    8   C8        -1.210889672     0.000000000    -1.447722515     C.2   1  noname   -0.391583
    9   C9        -1.170057466     0.000000000    -2.828563532     C.2   1  noname    0.144651
   10   C10        0.057958366     0.000000000    -3.466519961     C.2   1  noname   -0.443030
   11   C11        1.195128184     0.000000000    -2.677686739     C.2   1  noname    0.374584
   12   N12        1.165705928     0.000000000    -1.359132281     N.2   1  noname   -0.624271
   13   H13        2.082920664     0.000000000     3.397294656       H   1  noname    0.105299
   14   H14       -0.136564676     0.000000000     4.538048343       H   1  noname    0.177379
   15   H15       -2.171945997     0.000000000     3.129638667       H   1  noname    0.056316
   16   H16        2.138007965     0.000000000     0.911288582       H   1  noname    0.163508
   17   H17       -2.138231809     0.000000000    -0.911543084       H   1  noname    0.163532
   18   H18       -2.082840696     0.000000000    -3.397409427       H   1  noname    0.105297
   19   H19        0.136741164     0.000000000    -4.537963259       H   1  noname    0.177357
   20   H20        2.172058133     0.000000000    -3.129455517       H   1  noname    0.056316


@<TRIPOS>BOND
    1      1      2    2
    2      2      3    1
    3      3      4    2
    4      4      5    1
    5      5      6    2
    6      5      7    1
    7      7      8    2
    8      8      9    1
    9      9     10    2
   10     10     11    1
   11     11     12    2
   12      6      1    1
   13     12      7    1
   14      1     13    1
   15      2     14    1
   16      3     15    1
   17      6     16    1
   18      8     17    1
   19      9     18    1
   20     10     19    1
   21     11     20    1
#
#	File Created by: Spartan'20 Export
#

@<TRIPOS>MOLECULE
M0432
11 11
SMALL
USER_CHARGES


@<TRIPOS>ATOM
    1   C1         0.000020184     0.000000000     1.185543240     C.2   1  noname    0.273953
    2   C2         1.190080256     0.000000000     0.479398078     C.2   1  noname   -0.552738
    3   C3         1.130510011     0.000000000    -0.904432095     C.2   1  noname    0.499391
    4   N4        -0.000023505     0.000000000    -1.587625138     N.2   1  noname   -0.698155
    5   C5        -1.130535387     0.000000000    -0.904470856     C.2   1  noname    0.499415
    6   C6        -1.190056701     0.000000000     0.479361723     C.2   1  noname   -0.552746
    7   H7         0.000008899     0.000000000     2.260972428       H   1  noname    0.082035
    8   H8         2.139605917     0.000000000     0.981882126       H   1  noname    0.191364
    9   H9         2.035695457     0.000000000    -1.486232024       H   1  noname    0.033063
   10   H10       -2.035724078     0.000000000    -1.486254787       H   1  noname    0.033064
   11   H11       -2.139581053     0.000000000     0.981857306       H   1  noname    0.191352


@<TRIPOS>BOND
    1      1      2    2
    2      2      3    1
    3      3      4    2
    4      4      5    1
    5      5      6    2
    6      6      1    1
    7      1      7    1
    8      2      8    1
    9      3      9    1
   10      5     10    1
   11      6     11    1
#
#	File Created by: Spartan'20 Export
#

@<TRIPOS>MOLECULE
M0433
10 10
SMALL
USER_CHARGES


@<TRIPOS>ATOM
    1   C1         0.683703868     0.000000000     0.809962456     C.2   1  noname   -0.174558
    2   C2        -0.683694519     0.000000000     0.809955990     C.2   1  noname   -0.174559
    3   C3        -1.310060370     0.000000000    -0.435387125     C.2   1  noname    0.281302
    4   N4        -0.654686180     0.000000000    -1.569852654     N.2   1  noname   -0.295355
    5   N5         0.654675609     0.000000000    -1.569848979     N.2   1  noname   -0.295359
    6   C6         1.310059435     0.000000000    -0.435377247     C.2   1  noname    0.281296
    7   H7         1.260495247     0.000000000     1.716132942       H   1  noname    0.143993
    8   H8        -1.260491282     0.000000000     1.716125793       H   1  noname    0.143990
    9   H9        -2.380975907     0.000000000    -0.520856527       H   1  noname    0.044624
   10   H10        2.380974099     0.000000000    -0.520854649       H   1  noname    0.044626


@<TRIPOS>BOND
    1      1      2    2
    2      2      3    1
    3      3      4    2
    4      4      5    1
    5      5      6    2
    6      6      1    1
    7      1      7    1
    8      2      8    1
    9      3      9    1
   10      6     10    1
#
#	File Created by: Spartan'20 Export
#

@<TRIPOS>MOLECULE
M0434
9 9
SMALL
USER_CHARGES


@<TRIPOS>ATOM
    1   C1         0.720401434     0.000000000     0.725999051     C.2   1  noname   -0.219388
    2   C2        -0.720392076     0.000000000     0.725988318     C.2   1  noname   -0.219384
    3   C3        -1.081269757     0.000000000    -0.563481184     C.2   1  noname   -0.005877
    4   O4         0.000006269     0.000000000    -1.361610833     O.3   1  noname   -0.207860
    5   C5         1.081275766     0.000000000    -0.563471773     C.2   1  noname   -0.005873
    6   H6         1.373377573     0.000000000     1.574076031       H   1  noname    0.167602
    7   H7        -1.373387852     0.000000000     1.574050777       H   1  noname    0.167597
    8   H8        -2.029312468     0.000000000    -1.055763031       H   1  noname    0.161593
    9   H9         2.029301111     0.000000000    -1.055787357       H   1  noname    0.161592


@<TRIPOS>BOND
    1      1      2    1
    2      2      3    2
    3      3      4    1
    4      4      5    1
    5      5      1    2
    6      1      6    1
    7      2      7    1
    8      3      8    1
    9      5      9    1
#
#	File Created by: Spartan'20 Export
#

@<TRIPOS>MOLECULE
M0435
9 9
SMALL
USER_CHARGES


@<TRIPOS>ATOM
    1   C1         0.718466717     0.000000000    -0.688566272     C.2   1  noname   -0.147323
    2   C2        -0.718481287     0.000000000    -0.688577286     C.2   1  noname   -0.147327
    3   C3        -1.233910960     0.000000000     0.554098146     C.2   1  noname   -0.195427
    4   S4         0.000002490     0.000000000     1.760290404     S.3   1  noname    0.029511
    5   C5         1.233917940     0.000000000     0.554107502     C.2   1  noname   -0.195434
    6   H6         1.315452888     0.000000000    -1.581043801       H   1  noname    0.147106
    7   H7        -1.315457903     0.000000000    -1.581062619       H   1  noname    0.147113
    8   H8        -2.267408590     0.000000000     0.835378411       H   1  noname    0.180888
    9   H9         2.267418705     0.000000000     0.835375516       H   1  noname    0.180892


@<TRIPOS>BOND
    1      1      2    1
    2      2      3    2
    3      3      4    1
    4      4      5    1
    5      5      1    2
    6      1      6    1
    7      2      7    1
    8      3      8    1
    9      5      9    1
#
#	File Created by: Spartan'20 Export
#

@<TRIPOS>MOLECULE
M0436
12 12
SMALL
USER_CHARGES


@<TRIPOS>ATOM
    1   C1        -1.189440403     0.000000000     0.664076670     C.2   1  noname   -0.176879
    2   C2        -1.156219214     0.000000000    -0.711016399     C.2   1  noname   -0.162551
    3   N3         0.000003881     0.000000000    -1.387998015       N   1  noname    0.536546
    4   O4         0.000009889     0.000000000    -2.661752826       O   1  noname   -0.640707
    5   C5         1.156218962     0.000000000    -0.711012522     C.2   1  noname   -0.162548
    6   C6         1.189433703     0.000000000     0.664076600     C.2   1  noname   -0.176879
    7   C7        -0.000005583     0.000000000     1.366583794     C.2   1  noname    0.135447
    8   Cl8        0.000000758     0.000000000     3.098590222      Cl   1  noname   -0.102202
    9   H9        -2.135356792     0.000000000     1.169046697       H   1  noname    0.179549
   10   H10       -2.028550125     0.000000000    -1.329827769       H   1  noname    0.195338
   11   H11        2.028556080     0.000000000    -1.329817239       H   1  noname    0.195338
   12   H12        2.135348844     0.000000000     1.169050788       H   1  noname    0.179548


@<TRIPOS>BOND
    1      1      2    2
    2      2      3    1
    3      3      4    1
    4      3      5    2
    5      5      6    1
    6      6      7    2
    7      7      8    1
    8      7      1    1
    9      1      9    1
   10      2     10    1
   11      5     11    1
   12      6     12    1
#
#	File Created by: Spartan'20 Export
#

@<TRIPOS>MOLECULE
M0437
14 14
SMALL
USER_CHARGES


@<TRIPOS>ATOM
    1   C1        -1.196124399     0.000000000     0.202784516     C.2   1  noname   -0.112590
    2   C2        -1.165476860     0.000000000    -1.168722543     C.2   1  noname   -0.210031
    3   N3         0.000006316     0.000000000    -1.845036002       N   1  noname    0.601909
    4   O4         0.000002384     0.000000000    -3.098893710       O   1  noname   -0.596819
    5   C5         1.165483629     0.000000000    -1.168736711     C.2   1  noname   -0.210027
    6   C6         1.196112140     0.000000000     0.202775560     C.2   1  noname   -0.112595
    7   C7        -0.000011636     0.000000000     0.893091899     C.2   1  noname   -0.067371
    8   N8         0.000001622     0.000000000     2.343521867       N   1  noname    0.860194
    9   O9        -1.059345892     0.000000000     2.891986148       O   1  noname   -0.471851
   10   O10        1.059362509     0.000000000     2.891960274     O.2   1  noname   -0.471852
   11   H11       -2.134090502     0.000000000     0.718970549       H   1  noname    0.192371
   12   H12       -2.034526754     0.000000000    -1.791334469       H   1  noname    0.203144
   13   H13        2.034535471     0.000000000    -1.791345841       H   1  noname    0.203146
   14   H14        2.134071971     0.000000000     0.718978463       H   1  noname    0.192371


@<TRIPOS>BOND
    1      1      2    2
    2      2      3    1
    3      3      4    1
    4      3      5    2
    5      5      6    1
    6      6      7    2
    7      7      8    1
    8      8      9    1
    9      8     10    2
   10      7      1    1
   11      1     11    1
   12      2     12    1
   13      5     13    1
   14      6     14    1
#
#	File Created by: Spartan'20 Export
#

@<TRIPOS>MOLECULE
M0438
12 12
SMALL
USER_CHARGES


@<TRIPOS>ATOM
    1   C1        -0.062624991    -0.000016169    -1.721862376     C.2   1  noname   -0.757735
    2   C2        -0.043507918    -1.167289291    -0.979970673     C.2   1  noname    0.547674
    3   N3        -0.017788651    -1.184363122     0.336090373     N.2   1  noname   -0.841476
    4   C4        -0.014767244    -0.000032248     0.937673650     C.2   1  noname    1.209792
    5   N5        -0.017765269     1.184307813     0.336195019     N.2   1  noname   -0.841496
    6   C6        -0.043415248     1.167237003    -0.979870276     C.2   1  noname    0.547682
    7   N7        -0.032987247    -0.000091513     2.293799411     N.3   1  noname   -1.059909
    8   H8        -0.083279556     0.000012321    -2.793803010       H   1  noname    0.228003
    9   H9        -0.046683904    -2.129184805    -1.463920684       H   1  noname    0.063038
   10   H10       -0.046475589     2.129150183    -1.463795078       H   1  noname    0.063031
   11   H11        0.205091718    -0.850266070     2.749661143       H   1  noname    0.420728
   12   H12        0.204203900     0.850535897     2.749802502       H   1  noname    0.420667


@<TRIPOS>BOND
    1      1      2    2
    2      2      3    1
    3      3      4    2
    4      4      5    1
    5      5      6    2
    6      4      7    1
    7      6      1    1
    8      1      8    1
    9      2      9    1
   10      6     10    1
   11      7     11    1
   12      7     12    1
#
#	File Created by: Spartan'20 Export
#

@<TRIPOS>MOLECULE
M0439
9 9
SMALL
USER_CHARGES


@<TRIPOS>ATOM
    1   C1         0.906948362     0.000000000     0.412663586     C.2   1  noname   -0.321395
    2   C2         0.791448045     0.000000000    -0.932647452     C.2   1  noname    0.136422
    3   N3        -0.529720338     0.000000000    -1.300377976     N.2   1  noname   -0.540706
    4   C4        -1.191473647     0.000000000    -0.194188242     C.2   1  noname    0.234666
    5   N5        -0.381157474     0.000000000     0.884637526   N.pl3   1  noname   -0.256850
    6   H6         1.754734258     0.000000000     1.062828561       H   1  noname    0.210078
    7   H7         1.573067809     0.000000000    -1.663164190       H   1  noname    0.112162
    8   H8        -2.258681564     0.000000000    -0.106150271       H   1  noname    0.107002
    9   H9        -0.665165450     0.000000000     1.836398458       H   1  noname    0.318621


@<TRIPOS>BOND
    1      1      2    2
    2      2      3    1
    3      3      4    2
    4      4      5    1
    5      5      1    1
    6      1      6    1
    7      2      7    1
    8      4      8    1
    9      5      9    1
#
#	File Created by: Spartan'20 Export
#

@<TRIPOS>MOLECULE
M0440
12 12
SMALL
USER_CHARGES


@<TRIPOS>ATOM
    1   C1        -1.196092737     0.000000000     0.133363412     C.2   1  noname   -0.581751
    2   C2        -1.132487700     0.000000000    -1.249427210     C.2   1  noname    0.481629
    3   N3         0.000020350     0.000000000    -1.927141493     N.2   1  noname   -0.660782
    4   C4         1.132534410     0.000000000    -1.249527926     C.2   1  noname    0.481679
    5   C5         1.196163199     0.000000000     0.133255868     C.2   1  noname   -0.581783
    6   C6         0.000034147     0.000000000     0.834947458     C.2   1  noname    0.480852
    7   C7        -0.000050988     0.000000000     2.281509520     C.1   1  noname    0.196164
    8   N8        -0.000259474     0.000000000     3.417283113     N.1   1  noname   -0.381766
    9   H9        -2.140210195     0.000000000     0.643599857       H   1  noname    0.230640
   10   H10       -2.037082621     0.000000000    -1.830571715       H   1  noname    0.052248
   11   H11        2.037097296     0.000000000    -1.830703841       H   1  noname    0.052242
   12   H12        2.140334312     0.000000000     0.643412956       H   1  noname    0.230628


@<TRIPOS>BOND
    1      1      2    2
    2      2      3    1
    3      3      4    2
    4      4      5    1
    5      5      6    2
    6      6      7    1
    7      7      8    3
    8      6      1    1
    9      1      9    1
   10      2     10    1
   11      4     11    1
   12      5     12    1
#
#	File Created by: Spartan'20 Export
#

@<TRIPOS>MOLECULE
M0441
11 11
SMALL
USER_CHARGES


@<TRIPOS>ATOM
    1   C1        -1.194889603     0.000000000    -0.419195895     C.2   1  noname   -0.552568
    2   C2        -1.128776058     0.000000000     0.964288333     C.2   1  noname    0.475835
    3   N3         0.000086532     0.000000000     1.648414783     N.2   1  noname   -0.682164
    4   C4         1.128867943     0.000000000     0.964419190     C.2   1  noname    0.475936
    5   C5         1.194811801     0.000000000    -0.419076938     C.2   1  noname   -0.552616
    6   C6        -0.000072668     0.000000000    -1.111918096     C.2   1  noname    0.459047
    7   Cl7       -0.000056227     0.000000000    -2.848518327      Cl   1  noname   -0.140977
    8   H8        -2.137912868     0.000000000    -0.930647300       H   1  noname    0.207141
    9   H9        -2.036725472     0.000000000     1.541354387       H   1  noname    0.051632
   10   H10        2.036825037     0.000000000     1.541429211       H   1  noname    0.051627
   11   H11        2.137841584     0.000000000    -0.930549349       H   1  noname    0.207107


@<TRIPOS>BOND
    1      1      2    2
    2      2      3    1
    3      3      4    2
    4      4      5    1
    5      5      6    2
    6      6      7    1
    7      6      1    1
    8      1      8    1
    9      2      9    1
   10      4     10    1
   11      5     11    1
#
#	File Created by: Spartan'20 Export
#

@<TRIPOS>MOLECULE
M0442
13 13
SMALL
USER_CHARGES


@<TRIPOS>ATOM
    1   C1        -0.038871136     1.189388549    -0.015909609     C.2   1  noname   -0.792011
    2   C2        -0.028976543     1.123014862    -1.394097388     C.2   1  noname    0.523321
    3   N3        -0.022323929    -0.000000168    -2.091877213     N.2   1  noname   -0.736195
    4   C4        -0.028978326    -1.123013886    -1.394103421     C.2   1  noname    0.523327
    5   C5        -0.038868982    -1.189383883    -0.015915887     C.2   1  noname   -0.792014
    6   C6        -0.043676573     0.000002396     0.711052821     C.2   1  noname    0.900900
    7   N7        -0.097044385    -0.000004867     2.089197822     N.3   1  noname   -0.991684
    8   H8        -0.049175250     2.141988437     0.482920679       H   1  noname    0.241037
    9   H9        -0.024440722     2.034686231    -1.966649587       H   1  noname    0.046705
   10   H10       -0.024445572    -2.034686245    -1.966652670       H   1  noname    0.046704
   11   H11       -0.049172608    -2.141983524     0.482915971       H   1  noname    0.241036
   12   H12        0.222986968     0.828765860     2.539563797       H   1  noname    0.394436
   13   H13        0.222987059    -0.828773762     2.539554686       H   1  noname    0.394438


@<TRIPOS>BOND
    1      1      2    2
    2      2      3    1
    3      3      4    2
    4      4      5    1
    5      5      6    2
    6      6      7    1
    7      6      1    1
    8      1      8    1
    9      2      9    1
   10      4     10    1
   11      5     11    1
   12      7     12    1
   13      7     13    1
#
#	File Created by: Spartan'20 Export
#

@<TRIPOS>MOLECULE
M0443
23 24
SMALL
USER_CHARGES


@<TRIPOS>ATOM
    1   C1         1.185816463     0.096444856     1.717156310     C.2   1  noname   -0.741634
    2   C2         1.115839809     0.090376058     3.093969807     C.2   1  noname    0.542215
    3   N3         0.000004525    -0.000059972     3.797525331     N.2   1  noname   -0.757145
    4   C4        -1.115834311    -0.090442794     3.093961523     C.2   1  noname    0.542214
    5   C5        -1.185820732    -0.096421793     1.717149675     C.2   1  noname   -0.741633
    6   C6        -0.000003173     0.000028552     0.974274463     C.2   1  noname    0.682995
    7   N7        -0.000002442     0.000057573    -0.386983098   N.pl3   1  noname   -0.244540
    8   C8        -1.211017383     0.022701496    -1.191120936     C.3   1  noname   -0.073158
    9   C9        -0.697562115     0.313605777    -2.601780919     C.3   1  noname   -0.207198
   10   C10        0.697567456    -0.313657426    -2.601747565     C.3   1  noname   -0.207178
   11   C11        1.211015136    -0.022630819    -1.191110632     C.3   1  noname   -0.073192
   12   H12        2.141254395     0.185196711     1.238695111       H   1  noname    0.200736
   13   H13        2.026777707     0.166796529     3.663374007       H   1  noname    0.035284
   14   H14       -2.026773559    -0.166894302     3.663362458       H   1  noname    0.035284
   15   H15       -2.141264360    -0.185122631     1.238686638       H   1  noname    0.200736
   16   H16       -1.729309050    -0.933498964    -1.147861063       H   1  noname    0.093471
   17   H17       -1.897286329     0.786270762    -0.842707740       H   1  noname    0.093859
   18   H18       -0.623412290     1.386168252    -2.752252571       H   1  noname    0.115638
   19   H19       -1.348194239    -0.086689524    -3.369957336       H   1  noname    0.100134
   20   H20        1.348202349     0.086577901    -3.369951609       H   1  noname    0.100131
   21   H21        0.623425973    -1.386233038    -2.752129761       H   1  noname    0.115633
   22   H22        1.897286081    -0.786156705    -0.842620961       H   1  noname    0.093874
   23   H23        1.729290089     0.933583501    -1.147931130       H   1  noname    0.093474


@<TRIPOS>BOND
    1      1      2    2
    2      2      3    1
    3      3      4    2
    4      4      5    1
    5      5      6    2
    6      6      7    1
    7      7      8    1
    8      8      9    1
    9      9     10    1
   10     10     11    1
   11      6      1    1
   12     11      7    1
   13      1     12    1
   14      2     13    1
   15      4     14    1
   16      5     15    1
   17      8     16    1
   18      8     17    1
   19      9     18    1
   20      9     19    1
   21     10     20    1
   22     10     21    1
   23     11     22    1
   24     11     23    1
#
#	File Created by: Spartan'20 Export
#

@<TRIPOS>MOLECULE
M0444
26 27
SMALL
USER_CHARGES


@<TRIPOS>ATOM
    1   C1         1.146856014    -0.308191931     2.074152382     C.2   1  noname   -0.749484
    2   C2         1.080634896    -0.288722128     3.451417635     C.2   1  noname    0.540795
    3   N3         0.000092945     0.000759527     4.155561560     N.2   1  noname   -0.757325
    4   C4        -1.080477690     0.289597246     3.451197060     C.2   1  noname    0.540723
    5   C5        -1.146768678     0.307883101     2.073905464     C.2   1  noname   -0.749378
    6   C6         0.000045372    -0.000417986     1.326843583     C.2   1  noname    0.731000
    7   N7         0.000054359    -0.001005770    -0.042353961   N.pl3   1  noname   -0.390358
    8   C8        -1.247163706    -0.027734970    -0.793733938     C.3   1  noname    0.057227
    9   C9        -1.042582014    -0.719669312    -2.138962674     C.3   1  noname   -0.306486
   10   C10       -0.000089748     0.000419926    -3.009858807     C.3   1  noname    0.020493
   11   C11        1.042466025     0.719789378    -2.138448627     C.3   1  noname   -0.306454
   12   C12        1.247178412     0.026800579    -0.793785397     C.3   1  noname    0.057506
   13   H13        2.067908282    -0.585794548     1.601558419       H   1  noname    0.196827
   14   H14        1.962644102    -0.532250238     4.019417438       H   1  noname    0.037520
   15   H15       -1.962458669     0.533611310     4.019011499       H   1  noname    0.037535
   16   H16       -2.067901949     0.584964718     1.601128395       H   1  noname    0.196792
   17   H17       -1.983804828    -0.581059369    -0.226893916       H   1  noname    0.081399
   18   H18       -1.643426602     0.976722355    -0.942779189       H   1  noname    0.073815
   19   H19       -1.995168580    -0.783336242    -2.654747536       H   1  noname    0.095748
   20   H20       -0.723787544    -1.739389500    -1.945389513       H   1  noname    0.121126
   21   H21        0.485350105    -0.720763144    -3.659705517       H   1  noname    0.049572
   22   H22       -0.485588146     0.722122567    -3.659085195       H   1  noname    0.049543
   23   H23        1.994994954     0.783913031    -2.654272707       H   1  noname    0.095717
   24   H24        0.723669759     1.739326306    -1.943984442       H   1  noname    0.121086
   25   H25        1.643686355    -0.977387654    -0.943693155       H   1  noname    0.073691
   26   H26        1.983636577     0.579812746    -0.226498862       H   1  noname    0.081370


@<TRIPOS>BOND
    1      1      2    2
    2      2      3    1
    3      3      4    2
    4      4      5    1
    5      5      6    2
    6      6      7    1
    7      7      8    1
    8      8      9    1
    9      9     10    1
   10     10     11    1
   11     11     12    1
   12      6      1    1
   13     12      7    1
   14      1     13    1
   15      2     14    1
   16      4     15    1
   17      5     16    1
   18      8     17    1
   19      8     18    1
   20      9     19    1
   21      9     20    1
   22     10     21    1
   23     10     22    1
   24     11     23    1
   25     11     24    1
   26     12     25    1
   27     12     26    1
#
#	File Created by: Spartan'20 Export
#

@<TRIPOS>MOLECULE
M0445
10 10
SMALL
USER_CHARGES


@<TRIPOS>ATOM
    1   C1         1.121767679     0.000000000     0.692863300     C.2   1  noname    0.153830
    2   C2         1.121775417     0.000000000    -0.692871298     C.2   1  noname    0.153830
    3   N3         0.000005743     0.000000000    -1.386353078     N.2   1  noname   -0.459463
    4   C4        -1.121767032     0.000000000    -0.692864975     C.2   1  noname    0.153830
    5   C5        -1.121772696     0.000000000     0.692876347     C.2   1  noname    0.153839
    6   N6        -0.000006519     0.000000000     1.386355325     N.2   1  noname   -0.459465
    7   H7         2.044209773     0.000000000     1.244851104       H   1  noname    0.075899
    8   H8         2.044215862     0.000000000    -1.244859915       H   1  noname    0.075902
    9   H9        -2.044209692     0.000000000    -1.244853072       H   1  noname    0.075899
   10   H10       -2.044218534     0.000000000     1.244856261       H   1  noname    0.075900


@<TRIPOS>BOND
    1      1      2    2
    2      2      3    1
    3      3      4    2
    4      4      5    1
    5      5      6    2
    6      6      1    1
    7      1      7    1
    8      2      8    1
    9      4      9    1
   10      5     10    1
#
#	File Created by: Spartan'20 Export
#

@<TRIPOS>MOLECULE
M0446
10 10
SMALL
USER_CHARGES


@<TRIPOS>ATOM
    1   C1        -0.000006784     0.000000000    -1.135255704     C.2   1  noname   -0.791158
    2   C2        -1.172322434     0.000000000    -0.402792555     C.2   1  noname    0.658672
    3   N3        -1.179404565     0.000000000     0.918332468     N.2   1  noname   -0.827604
    4   C4         0.000012361     0.000000000     1.507808190     C.2   1  noname    0.828317
    5   N5         1.179418346     0.000000000     0.918348917     N.2   1  noname   -0.827592
    6   C6         1.172315913     0.000000000    -0.402776542     C.2   1  noname    0.658662
    7   H7        -0.000005792     0.000000000    -2.208595088       H   1  noname    0.236990
    8   H8        -2.132541769     0.000000000    -0.888933983       H   1  noname    0.031837
    9   H9         0.000001853     0.000000000     2.582790443       H   1  noname    0.000039
   10   H10        2.132532871     0.000000000    -0.888926146       H   1  noname    0.031837


@<TRIPOS>BOND
    1      1      2    2
    2      2      3    1
    3      3      4    2
    4      4      5    1
    5      5      6    2
    6      6      1    1
    7      1      7    1
    8      2      8    1
    9      4      9    1
   10      6     10    1
#
#	File Created by: Spartan'20 Export
#

@<TRIPOS>MOLECULE
M0447
8 8
SMALL
USER_CHARGES


@<TRIPOS>ATOM
    1   C1        -0.063839982     0.000000000     0.779231433     C.2   1  noname   -0.460867
    2   C2         1.085871021     0.000000000    -0.067231485     C.2   1  noname    0.313361
    3   N3         0.763219503     0.000000000    -1.307329903     N.2   1  noname   -0.364815
    4   O4        -0.596690609     0.000000000    -1.342278892     O.3   1  noname   -0.099141
    5   C5        -1.067523781     0.000000000    -0.108225746     C.2   1  noname    0.167749
    6   H6        -0.110124731     0.000000000     1.846400004       H   1  noname    0.209205
    7   H7         2.120987870     0.000000000     0.207755352       H   1  noname    0.094631
    8   H8        -2.131899292     0.000000000    -0.008320762       H   1  noname    0.139877


@<TRIPOS>BOND
    1      1      2    1
    2      2      3    2
    3      3      4    1
    4      4      5    1
    5      5      1    2
    6      1      6    1
    7      2      7    1
    8      5      8    1
#
#	File Created by: Spartan'20 Export
#

@<TRIPOS>MOLECULE
M0448
8 8
SMALL
USER_CHARGES


@<TRIPOS>ATOM
    1   C1        -0.654902285     0.000000000    -0.802990769     C.2   1  noname   -0.082505
    2   C2         0.654900418     0.000000000    -0.802991693     C.2   1  noname   -0.082507
    3   O3         1.083773518     0.000000000     0.499431826     O.3   1  noname   -0.352131
    4   C4         0.000001489     0.000000000     1.286541756     C.2   1  noname    1.046357
    5   O5         0.000002168     0.000000000     2.458135550     O.2   1  noname   -0.623699
    6   O6        -1.083772667     0.000000000     0.499432599     O.3   1  noname   -0.352132
    7   H7        -1.396081313     0.000000000    -1.568778891       H   1  noname    0.223309
    8   H8         1.396078671     0.000000000    -1.568780378       H   1  noname    0.223309


@<TRIPOS>BOND
    1      1      2    2
    2      2      3    1
    3      3      4    1
    4      4      5    2
    5      4      6    1
    6      6      1    1
    7      1      7    1
    8      2      8    1
#
#	File Created by: Spartan'20 Export
#

@<TRIPOS>MOLECULE
M0449
11 11
SMALL
USER_CHARGES


@<TRIPOS>ATOM
    1   C1        -1.224744845     0.000000000     0.437705033     C.2   1  noname   -0.712838
    2   C2        -1.152600725     0.000000000    -0.886937892     C.2   1  noname    0.343990
    3   O3        -0.000000461     0.000000000    -1.575062696     O.3   1  noname   -0.379207
    4   C4         1.152603145     0.000000000    -0.886935929     C.2   1  noname    0.343985
    5   C5         1.224745737     0.000000000     0.437706129     C.2   1  noname   -0.712833
    6   C6        -0.000001693     0.000000000     1.250611889     C.2   1  noname    1.067857
    7   O7        -0.000002298     0.000000000     2.450561330     O.2   1  noname   -0.661630
    8   H8        -2.177373073     0.000000000     0.930524904       H   1  noname    0.236989
    9   H9        -1.998394234     0.000000000    -1.544348541       H   1  noname    0.118349
   10   H10        1.998395198     0.000000000    -1.544350367       H   1  noname    0.118350
   11   H11        2.177373249     0.000000000     0.930526141       H   1  noname    0.236989


@<TRIPOS>BOND
    1      1      2    2
    2      2      3    1
    3      3      4    1
    4      4      5    2
    5      5      6    1
    6      6      7    2
    7      6      1    1
    8      1      8    1
    9      2      9    1
   10      4     10    1
   11      5     11    1
#
#	File Created by: Spartan'20 Export
#

@<TRIPOS>MOLECULE
M0450
8 8
SMALL
USER_CHARGES


@<TRIPOS>ATOM
    1   C1        -0.629460737     0.000000000    -0.797263051     C.2   1  noname    0.095585
    2   C2         0.701722953     0.000000000    -0.724174093     C.2   1  noname   -0.160488
    3   O3         1.041048941     0.000000000     0.587876065     O.3   1  noname   -0.268615
    4   C4        -0.120216034     0.000000000     1.234399969     C.2   1  noname    0.485367
    5   N5        -1.147694295     0.000000000     0.490640460     N.2   1  noname   -0.569782
    6   H6        -1.260460558     0.000000000    -1.659887355       H   1  noname    0.133011
    7   H7         1.497457825     0.000000000    -1.434384520       H   1  noname    0.206501
    8   H8        -0.082398094     0.000000000     2.302792525       H   1  noname    0.078421


@<TRIPOS>BOND
    1      1      2    2
    2      2      3    1
    3      3      4    1
    4      4      5    2
    5      5      1    1
    6      1      6    1
    7      2      7    1
    8      4      8    1
#
#	File Created by: Spartan'20 Export
#

@<TRIPOS>MOLECULE
M0451
8 8
SMALL
USER_CHARGES


@<TRIPOS>ATOM
    1   C1        -0.375955410     0.000000000    -0.906321170     C.2   1  noname    0.138594
    2   C2        -1.120324051     0.000000000     0.210122353     C.2   1  noname   -0.287196
    3   S3        -0.087637967     0.000000000     1.593907015     S.3   1  noname    0.013051
    4   C4         1.269093665     0.000000000     0.524333998     C.2   1  noname    0.188137
    5   N5         0.989207489     0.000000000    -0.719592029     N.2   1  noname   -0.487687
    6   H6        -0.759670946     0.000000000    -1.906861854       H   1  noname    0.113509
    7   H7        -2.186144771     0.000000000     0.298840283       H   1  noname    0.199456
    8   H8         2.271431992     0.000000000     0.905571405       H   1  noname    0.122136


@<TRIPOS>BOND
    1      1      2    2
    2      2      3    1
    3      3      4    1
    4      4      5    2
    5      5      1    1
    6      1      6    1
    7      2      7    1
    8      4      8    1
#
#	File Created by: Spartan'20 Export
#

@<TRIPOS>MOLECULE
M0452
9 9
SMALL
USER_CHARGES


@<TRIPOS>ATOM
    1   C1         0.000050706     0.000000000     1.278933481     C.2   1  noname    0.884940
    2   N2        -1.172777563     0.000000000     0.676991928     N.2   1  noname   -0.895988
    3   C3        -1.107809527     0.000000000    -0.639513616     C.2   1  noname    0.874180
    4   N4        -0.000046323     0.000000000    -1.354030057     N.2   1  noname   -0.892373
    5   C5         1.107753787     0.000000000    -0.639415022     C.2   1  noname    0.874100
    6   N6         1.172839395     0.000000000     0.677074940     N.2   1  noname   -0.895889
    7   H7         0.000034549     0.000000000     2.353706672       H   1  noname    0.014746
    8   H8        -2.038529064     0.000000000    -1.176906962       H   1  noname    0.018139
    9   H9         2.038484040     0.000000000    -1.176841363       H   1  noname    0.018144


@<TRIPOS>BOND
    1      1      2    2
    2      2      3    1
    3      3      4    2
    4      4      5    1
    5      5      6    2
    6      6      1    1
    7      1      7    1
    8      3      8    1
    9      5      9    1
