#
#	File Created by: Spartan'20 Export
#

@<TRIPOS>MOLECULE
M0001
5 4
SMALL
MULLIKEN_CHARGES


@<TRIPOS>ATOM
    1   C1         0.000000000     0.000000000    -1.295433142     C.1   1  noname   -0.102670
    2   C2         0.000000000     0.000000000    -0.080808943     C.1   1  noname    0.144135
    3   C3         0.000000000     0.000000000     1.286647368     C.1   1  noname   -0.264224
    4   N4         0.000000000     0.000000000     2.456856487     N.1   1  noname    0.094643
    5   H5         0.000000000     0.000000000    -2.367261769       H   1  noname    0.195170


@<TRIPOS>BOND
    1      1      2    3
    2      2      3    1
    3      3      4    3
    4      1      5    1
#
#	File Created by: Spartan'20 Export
#

@<TRIPOS>MOLECULE
M0002
9 8
SMALL
MULLIKEN_CHARGES


@<TRIPOS>ATOM
    1   C1        -1.917913070     0.323096948    -0.940782732     C.1   1  noname   -0.118783
    2   C2        -0.800416645     0.008425541    -0.595852239     C.1   1  noname   -0.032841
    3   C3         0.531303566    -0.387470738    -0.150184950     C.3   1  noname   -0.168701
    4   N4         1.046805373     0.530900401     0.880748605     N.3   1  noname   -0.456793
    5   H5        -2.900913982     0.608520033    -1.254771167       H   1  noname    0.157950
    6   H6         0.481635183    -1.450840316     0.166560767       H   1  noname    0.120059
    7   H7         1.219801206    -0.353231545    -1.012019392       H   1  noname    0.124702
    8   H8         0.401138665     0.545689791     1.673449639       H   1  noname    0.217695
    9   H9         1.938559704     0.174909885     1.232851469       H   1  noname    0.205452


@<TRIPOS>BOND
    1      1      2    3
    2      2      3    1
    3      3      4    1
    4      1      5    1
    5      3      6    1
    6      3      7    1
    7      4      8    1
    8      4      9    1
#
#	File Created by: Spartan'20 Export
#

@<TRIPOS>MOLECULE
M0003
19 18
SMALL
MULLIKEN_CHARGES


@<TRIPOS>ATOM
    1   C1        -2.887068954     1.213650565     0.268727328     C.1   1  noname   -0.117078
    2   C2        -1.771788937     0.957372800    -0.125897771     C.1   1  noname    0.005750
    3   C3        -0.426628153     0.751995382    -0.650701643     C.3   1  noname   -0.219185
    4   N4         0.411054638    -0.171074759     0.135628520     N.3   1  noname   -0.047988
    5   C5         1.838182077     0.086273851    -0.114764100     C.3   1  noname   -0.169857
    6   C6         2.256734073     1.421748052     0.293522188     C.1   1  noname   -0.064403
    7   C7         2.618915659     2.530923769     0.617158378     C.1   1  noname   -0.080992
    8   C8         0.128683426    -1.585982913    -0.146192421     C.3   1  noname   -0.247453
    9   C9        -1.157088297    -2.070232773     0.341699847     C.1   1  noname    0.009605
   10   C10       -2.193675886    -2.554848513     0.735368471     C.1   1  noname   -0.095076
   11   H11       -3.875047100     1.403686796     0.634106749       H   1  noname    0.154265
   12   H12        0.085025891     1.728656100    -0.647715896       H   1  noname    0.149178
   13   H13       -0.490134886     0.430484784    -1.715894232       H   1  noname    0.096209
   14   H14        2.415274083    -0.658026447     0.458608952       H   1  noname    0.129442
   15   H15        2.115857961    -0.061560422    -1.186568758       H   1  noname    0.093358
   16   H16        2.935687313     3.509387005     0.915636007       H   1  noname    0.163769
   17   H17        0.921170693    -2.179118167     0.340799110       H   1  noname    0.125684
   18   H18        0.201646873    -1.807241437    -1.238370487       H   1  noname    0.101746
   19   H19       -3.126800475    -2.946093674     1.084849756       H   1  noname    0.156444


@<TRIPOS>BOND
    1      1      2    3
    2      2      3    1
    3      3      4    1
    4      4      5    1
    5      5      6    1
    6      6      7    3
    7      4      8    1
    8      8      9    1
    9      9     10    3
   10      1     11    1
   11      3     12    1
   12      3     13    1
   13      5     14    1
   14      5     15    1
   15      7     16    1
   16      8     17    1
   17      8     18    1
   18     10     19    1
#
#	File Created by: Spartan'20 Export
#

@<TRIPOS>MOLECULE
M0004
3 2
SMALL
MULLIKEN_CHARGES


@<TRIPOS>ATOM
    1   C1         0.000000000     0.000000000    -0.154205873     C.1   1  noname   -0.069183
    2   N2         0.000000000     0.000000000    -1.322159038     N.1   1  noname    0.009587
    3   Cl3        0.000000000     0.000000000     1.476364911      Cl   1  noname    0.109169


@<TRIPOS>BOND
    1      1      2    3
    2      1      3    1
#
#	File Created by: Spartan'20 Export
#

@<TRIPOS>MOLECULE
M0005
13 13
SMALL
MULLIKEN_CHARGES


@<TRIPOS>ATOM
    1   C1         0.000006389     0.000000000     2.524407071     C.1   1  noname   -0.261151
    2   N2        -0.000449700     0.000000000     3.689710364     N.1   1  noname    0.100084
    3   C3         0.000197460     0.000000000     1.103168077     C.2   1  noname    0.101930
    4   C4         1.207774800     0.000000000     0.381463285     C.2   1  noname    0.171085
    5   C5         1.214499876     0.000000000    -1.012739165     C.2   1  noname    0.147929
    6   C6         0.000053811     0.000000000    -1.707063152     C.2   1  noname    0.172561
    7   C7        -1.214298598     0.000000000    -1.012691193     C.2   1  noname    0.147927
    8   C8        -1.207403140     0.000000000     0.381456585     C.2   1  noname    0.171066
    9   F9        -2.371418247     0.000000000     1.034722660       F   1  noname   -0.101428
   10   F10       -2.367648256     0.000000000    -1.688242830       F   1  noname   -0.108774
   11   F11       -0.000339587     0.000000000    -3.040571685       F   1  noname   -0.102009
   12   F12        2.367538047     0.000000000    -1.688629249       F   1  noname   -0.108758
   13   F13        2.371487146     0.000000000     1.035009234       F   1  noname   -0.101393


@<TRIPOS>BOND
    1      1      2    3
    2      1      3    1
    3      3      4    2
    4      4      5    1
    5      5      6    2
    6      6      7    1
    7      7      8    2
    8      8      9    1
    9      7     10    1
   10      6     11    1
   11      5     12    1
   12      4     13    1
   13      8      3    1
#
#	File Created by: Spartan'20 Export
#

@<TRIPOS>MOLECULE
M0006
6 5
SMALL
MULLIKEN_CHARGES


@<TRIPOS>ATOM
    1   C1         0.302912751     0.000000000     0.592785880     C.2   1  noname    0.154799
    2   O2        -0.264216402     0.000000000     1.672466881     O.2   1  noname   -0.289510
    3   N3        -0.321996494     0.000000000    -0.617888920    N.am   1  noname   -0.342591
    4   H4         1.415194919     0.000000000     0.489532040       H   1  noname    0.052323
    5   H5         0.204780888     0.000000000    -1.483001317       H   1  noname    0.233446
    6   H6        -1.336675663     0.000000000    -0.653894563       H   1  noname    0.234368


@<TRIPOS>BOND
    1      1      2    2
    2      1      3    am
    3      1      4    1
    4      3      5    1
    5      3      6    1
#
#	File Created by: Spartan'20 Export
#

@<TRIPOS>MOLECULE
M0007
6 5
SMALL
MULLIKEN_CHARGES


@<TRIPOS>ATOM
    1   C1         0.344643628     0.000003253    -0.296498789     C.3   1  noname   -0.042591
    2   C2        -0.503284198     0.000003688     0.884230314     C.1   1  noname   -0.226587
    3   N3        -1.169111346    -0.000005367     1.837192782     N.1   1  noname    0.060351
    4   Cl4       -0.632435091    -0.000002013    -1.809077684      Cl   1  noname   -0.082998
    5   H5         0.980089394    -0.895567629    -0.307921006       H   1  noname    0.171487
    6   H6         0.980097613     0.895568066    -0.307925617       H   1  noname    0.171487


@<TRIPOS>BOND
    1      1      2    1
    2      2      3    3
    3      1      4    1
    4      1      5    1
    5      1      6    1
#
#	File Created by: Spartan'20 Export
#

@<TRIPOS>MOLECULE
M0008
10 9
SMALL
MULLIKEN_CHARGES


@<TRIPOS>ATOM
    1   C1         1.229646448    -0.126311578    -0.407329372     C.3   1  noname   -0.134321
    2   C2         0.106492627    -0.235887969     0.619945577     C.2   1  noname    0.149057
    3   O3         0.325129898    -0.560921961     1.769209445     O.2   1  noname   -0.201118
    4   C4        -1.334102153    -0.008999472     0.172596698     C.3   1  noname   -0.127572
    5   Cl5       -1.546102991     1.227111346    -1.109655787      Cl   1  noname   -0.111972
    6   Cl6        2.021613432     1.477553923    -0.218706099      Cl   1  noname   -0.105594
    7   H7         1.980396323    -0.896115787    -0.196029167       H   1  noname    0.151603
    8   H8         0.868088669    -0.189381841    -1.440307859       H   1  noname    0.145846
    9   H9        -1.937384749     0.273723215     1.042285528       H   1  noname    0.157855
   10   H10       -1.713777505    -0.960769876    -0.232008963       H   1  noname    0.150631


@<TRIPOS>BOND
    1      1      2    1
    2      2      3    2
    3      2      4    1
    4      4      5    1
    5      1      6    1
    6      1      7    1
    7      1      8    1
    8      4      9    1
    9      4     10    1
#
#	File Created by: Spartan'20 Export
#

@<TRIPOS>MOLECULE
M0009
10 9
SMALL
MULLIKEN_CHARGES


@<TRIPOS>ATOM
    1   C1         0.332085407    -0.463183138    -0.064941141     C.3   1  noname   -0.149158
    2   C2        -1.101520528    -0.017664260     0.181704437     C.3   1  noname    0.431047
    3   F3        -1.698272053     0.484432415    -0.921411598       F   1  noname   -0.118603
    4   F4        -1.856221396    -1.065191488     0.615382739       F   1  noname   -0.132166
    5   F5        -1.156557046     0.946313216     1.146871132       F   1  noname   -0.142408
    6   N6         1.153280063     0.671306436    -0.460548288     N.3   1  noname   -0.472921
    7   H7         0.296487113    -1.195116906    -0.884834815       H   1  noname    0.121857
    8   H8         0.648345185    -1.000049184     0.851259133       H   1  noname    0.111941
    9   H9         1.322288291     1.286744477     0.336554222       H   1  noname    0.224594
   10   H10        2.060084964     0.352408432    -0.800035821       H   1  noname    0.220567


@<TRIPOS>BOND
    1      1      2    1
    2      2      3    1
    3      2      4    1
    4      2      5    1
    5      1      6    1
    6      1      7    1
    7      1      8    1
    8      6      9    1
    9      6     10    1
#
#	File Created by: Spartan'20 Export
#

@<TRIPOS>MOLECULE
M0010
9 8
SMALL
MULLIKEN_CHARGES


@<TRIPOS>ATOM
    1   C1         0.601286604     0.359917610    -0.173763101     C.3   1  noname   -0.063570
    2   C2        -0.863494796     0.057749484     0.128264864     C.3   1  noname    0.388108
    3   F3        -1.198297263    -1.190371210    -0.317445686       F   1  noname   -0.143381
    4   F4        -1.144687689     0.098577725     1.449427837       F   1  noname   -0.116205
    5   F5        -1.675341862     0.947882752    -0.499125089       F   1  noname   -0.125231
    6   O6         1.475273609    -0.586974005     0.402118681     O.3   1  noname   -0.389916
    7   H7         0.696743821     0.432454983    -1.272924929       H   1  noname    0.113414
    8   H8         0.840181284     1.338687165     0.264049140       H   1  noname    0.126099
    9   H9         1.268336293    -1.457924504     0.019398282       H   1  noname    0.306959


@<TRIPOS>BOND
    1      1      2    1
    2      2      3    1
    3      2      4    1
    4      2      5    1
    5      1      6    1
    6      1      7    1
    7      1      8    1
    8      6      9    1
#
#	File Created by: Spartan'20 Export
#

@<TRIPOS>MOLECULE
M0011
16 15
SMALL
MULLIKEN_CHARGES


@<TRIPOS>ATOM
    1   C1         1.211976988     0.458432201    -0.728953614     C.3   1  noname   -0.147590
    2   C2         2.118170939    -0.307180240     0.238786928     C.3   1  noname   -0.130233
    3   Cl3        3.723169035    -0.644646657    -0.515036098      Cl   1  noname   -0.148343
    4   N4        -0.103127920     0.784278453    -0.190946681     N.3   1  noname   -0.272658
    5   C5        -0.960172710    -0.345868231     0.157636657     C.3   1  noname   -0.152625
    6   C6        -2.408409887     0.127202838     0.186853780     C.3   1  noname   -0.100609
    7   Cl7       -3.516250083    -1.230226612     0.609039128      Cl   1  noname   -0.147596
    8   H8         1.710855456     1.394320320    -1.023508964       H   1  noname    0.128194
    9   H9         1.082580158    -0.134806278    -1.648489979       H   1  noname    0.116760
   10   H10        2.311984698     0.274504463     1.150959512       H   1  noname    0.121516
   11   H11        1.693392142    -1.279949168     0.518226246       H   1  noname    0.141824
   12   H12       -0.019249783     1.432114468     0.594978461       H   1  noname    0.186506
   13   H13       -0.718581781    -0.834963377     1.121984036       H   1  noname    0.103808
   14   H14       -0.852846275    -1.115148688    -0.623678856       H   1  noname    0.117664
   15   H15       -2.710930531     0.514913433    -0.792892208       H   1  noname    0.135163
   16   H16       -2.562560448     0.907023074     0.945041651       H   1  noname    0.123056


@<TRIPOS>BOND
    1      1      2    1
    2      2      3    1
    3      1      4    1
    4      4      5    1
    5      5      6    1
    6      6      7    1
    7      1      8    1
    8      1      9    1
    9      2     10    1
   10      2     11    1
   11      4     12    1
   12      5     13    1
   13      5     14    1
   14      6     15    1
   15      6     16    1
#
#	File Created by: Spartan'20 Export
#

@<TRIPOS>MOLECULE
M0012
9 8
SMALL
MULLIKEN_CHARGES


@<TRIPOS>ATOM
    1   C1         0.511129083    -0.432257264     0.301388003     C.3   1  noname   -0.021599
    2   C2        -0.845527731    -0.091775623    -0.287127073     C.3   1  noname   -0.147374
    3   Cl3       -1.300039986     1.613847040     0.124618614      Cl   1  noname   -0.157199
    4   O4         1.563715702     0.348267622    -0.242865809     O.3   1  noname   -0.403509
    5   H5         0.466483952    -0.351417511     1.404417641       H   1  noname    0.099743
    6   H6         0.740686542    -1.480691881     0.048561836       H   1  noname    0.107827
    7   H7        -1.636126764    -0.738068138     0.116266674       H   1  noname    0.129123
    8   H8        -0.832302929    -0.150076080    -1.382646989       H   1  noname    0.140256
    9   H9         1.331982133     1.282171835    -0.082612897       H   1  noname    0.293179


@<TRIPOS>BOND
    1      1      2    1
    2      2      3    1
    3      1      4    1
    4      1      5    1
    5      1      6    1
    6      2      7    1
    7      2      8    1
    8      4      9    1
#
#	File Created by: Spartan'20 Export
#

@<TRIPOS>MOLECULE
M0013
15 14
SMALL
MULLIKEN_CHARGES


@<TRIPOS>ATOM
    1   C1         1.049820990     0.539824248    -0.495518916     C.3   1  noname   -0.052820
    2   C2         2.186856035     0.943755563     0.413404073     C.3   1  noname   -0.110341
    3   Cl3        3.042815828    -0.480896373     1.112951455      Cl   1  noname   -0.147295
    4   O4        -0.000120501     0.000520652     0.286082575     O.3   1  noname   -0.214334
    5   C5        -1.049848438    -0.539343131    -0.495421647     C.3   1  noname   -0.052847
    6   C6        -2.186642660    -0.943967485     0.413523153     C.3   1  noname   -0.110341
    7   Cl7       -3.044187791     0.479986586     1.112526082      Cl   1  noname   -0.147301
    8   H8         0.702110731     1.444790798    -1.039056657       H   1  noname    0.095775
    9   H9         1.404287239    -0.191877541    -1.248262867       H   1  noname    0.092256
   10   H10        2.932910959     1.523820473    -0.143687974       H   1  noname    0.132537
   11   H11        1.812276392     1.537163229     1.256854365       H   1  noname    0.138247
   12   H12       -0.701718550    -1.444159364    -1.038940789       H   1  noname    0.095758
   13   H13       -1.404797026     0.192092612    -1.248202632       H   1  noname    0.092264
   14   H14       -2.932093197    -1.524920759    -0.143463657       H   1  noname    0.132538
   15   H15       -1.811670011    -1.536789508     1.257213438       H   1  noname    0.138253


@<TRIPOS>BOND
    1      1      2    1
    2      2      3    1
    3      1      4    1
    4      4      5    1
    5      5      6    1
    6      6      7    1
    7      1      8    1
    8      1      9    1
    9      2     10    1
   10      2     11    1
   11      5     12    1
   12      5     13    1
   13      6     14    1
   14      6     15    1
#
#	File Created by: Spartan'20 Export
#

@<TRIPOS>MOLECULE
M0014
11 10
SMALL
MULLIKEN_CHARGES


@<TRIPOS>ATOM
    1   C1         0.000078031     0.000150019     0.637371986     C.3   1  noname   -0.161399
    2   C2        -1.119527022     0.593704336    -0.197345691     C.3   1  noname    0.004586
    3   F3        -1.761425672    -0.425626203    -0.926979953       F   1  noname   -0.215258
    4   C4         1.119477234    -0.593756923    -0.197379951     C.3   1  noname    0.004574
    5   F5         1.762074458     0.425379924    -0.926658475       F   1  noname   -0.215252
    6   H6        -0.410921704    -0.786466749     1.291913578       H   1  noname    0.102700
    7   H7         0.411185703     0.786969429     1.291600717       H   1  noname    0.102712
    8   H8        -0.732045057     1.325438804    -0.923517457       H   1  noname    0.111142
    9   H9        -1.880560530     1.074381066     0.437418137       H   1  noname    0.105384
   10   H10        1.880106409    -1.075114918     0.437346619       H   1  noname    0.105373
   11   H11        0.731558152    -1.325058785    -0.923769510       H   1  noname    0.111152


@<TRIPOS>BOND
    1      1      2    1
    2      2      3    1
    3      1      4    1
    4      4      5    1
    5      1      6    1
    6      1      7    1
    7      2      8    1
    8      2      9    1
    9      4     10    1
   10      4     11    1
#
#	File Created by: Spartan'20 Export
#

@<TRIPOS>MOLECULE
M0015
17 16
SMALL
MULLIKEN_CHARGES


@<TRIPOS>ATOM
    1   C1         1.344295075    -1.148933599     0.320039229     C.3   1  noname   -0.425893
    2   C2         0.608814931     0.151006756     0.118208579     C.2   1  noname    0.227768
    3   N3         1.201423839     1.325043256     0.150837669     N.2   1  noname   -0.241459
    4   C4         2.494869376     1.430123381     0.395116916     C.1   1  noname   -0.156355
    5   N5         3.636049986     1.623379170     0.602270280     N.1   1  noname   -0.043184
    6   N6        -0.731948813     0.118603176    -0.098739204   N.pl3   1  noname    0.027641
    7   C7        -1.497567409    -1.104061581    -0.260611920     C.3   1  noname   -0.301476
    8   C8        -1.485878318     1.346425830    -0.317825808     C.3   1  noname   -0.289403
    9   H9         0.957295631    -1.696078548     1.191923951       H   1  noname    0.145752
   10   H10        2.407288571    -0.939157350     0.487252399       H   1  noname    0.172152
   11   H11        1.252548359    -1.802718784    -0.559113358       H   1  noname    0.147801
   12   H12       -2.401996969    -1.057934195     0.366161485       H   1  noname    0.135743
   13   H13       -1.818737473    -1.231384594    -1.309128741       H   1  noname    0.136598
   14   H14       -0.921051072    -1.983620664     0.035337865       H   1  noname    0.152274
   15   H15       -1.768504875     1.445142411    -1.379281008       H   1  noname    0.128568
   16   H16       -0.872024394     2.204347944    -0.029038428       H   1  noname    0.174765
   17   H17       -2.404876444     1.319817391     0.286590095       H   1  noname    0.124891


@<TRIPOS>BOND
    1      1      2    1
    2      2      3    2
    3      3      4    1
    4      4      5    3
    5      2      6    1
    6      6      7    1
    7      6      8    1
    8      1      9    1
    9      1     10    1
   10      1     11    1
   11      7     12    1
   12      7     13    1
   13      7     14    1
   14      8     15    1
   15      8     16    1
   16      8     17    1
#
#	File Created by: Spartan'20 Export
#

@<TRIPOS>MOLECULE
M0016
18 18
SMALL
MULLIKEN_CHARGES


@<TRIPOS>ATOM
    1   C1        -0.112128933     0.000330435     3.511512123     C.3   1  noname   -0.280681
    2   N2        -0.509331492     0.000460132     2.110674382     N.2   1  noname   -0.095202
    3   C3         0.419151765    -0.000431380     1.233404086     C.2   1  noname   -0.174571
    4   C4         0.152783115    -0.000283485    -0.212029351     C.2   1  noname    0.269977
    5   C5        -1.160525264    -0.000037196    -0.715187417     C.2   1  noname   -0.163796
    6   C6        -1.386399978     0.000183782    -2.087366366     C.2   1  noname   -0.090607
    7   C7        -0.307624090     0.000194011    -2.981094489     C.2   1  noname   -0.076534
    8   C8         0.999788728    -0.000057214    -2.491885329     C.2   1  noname   -0.117694
    9   C9         1.228050873    -0.000322402    -1.115066362     C.2   1  noname   -0.139295
   10   H10       -1.005636169    -0.001422063     4.149269376       H   1  noname    0.135066
   11   H11        0.486965573     0.892743071     3.764148979       H   1  noname    0.122092
   12   H12        0.489969810    -0.890267269     3.763465595       H   1  noname    0.121927
   13   H13        1.495209975    -0.001291508     1.514913520       H   1  noname    0.033740
   14   H14       -1.987286051    -0.000028479    -0.003181684       H   1  noname    0.130182
   15   H15       -2.409124751     0.000360785    -2.469784630       H   1  noname    0.112955
   16   H16       -0.488621345     0.000401049    -4.057752486       H   1  noname    0.113422
   17   H17        1.843496787    -0.000033770    -3.184645093       H   1  noname    0.111832
   18   H18        2.251261447    -0.000498499    -0.729394853       H   1  noname    0.109070


@<TRIPOS>BOND
    1      1      2    1
    2      2      3    2
    3      3      4    1
    4      4      5    2
    5      5      6    1
    6      6      7    2
    7      7      8    1
    8      8      9    2
    9      9      4    1
   10      1     10    1
   11      1     11    1
   12      1     12    1
   13      3     13    1
   14      5     14    1
   15      6     15    1
   16      7     16    1
   17      8     17    1
   18      9     18    1
#
#	File Created by: Spartan'20 Export
#

@<TRIPOS>MOLECULE
M0017
12 12
SMALL
MULLIKEN_CHARGES


@<TRIPOS>ATOM
    1   C1        -1.266588904     0.000000000    -0.673341087     C.2   1  noname   -0.123482
    2   C2        -1.266638514     0.000000000     0.673497037     C.2   1  noname   -0.123570
    3   C3         0.000023110     0.000000000     1.445095821     C.2   1  noname    0.270479
    4   O4        -0.000019551     0.000000000     2.676223777     O.2   1  noname   -0.222111
    5   C5         1.266713848     0.000000000     0.673449307     C.2   1  noname   -0.123528
    6   C6         1.266710246     0.000000000    -0.673408333     C.2   1  noname   -0.123503
    7   C7         0.000017773     0.000000000    -1.444928115     C.2   1  noname    0.270415
    8   O8        -0.000133626     0.000000000    -2.676078745     O.2   1  noname   -0.222154
    9   H9        -2.185153538     0.000000000    -1.264711041       H   1  noname    0.129333
   10   H10       -2.185453162     0.000000000     1.264408669       H   1  noname    0.129333
   11   H11        2.185323433     0.000000000     1.264608147       H   1  noname    0.129330
   12   H12        2.185198884     0.000000000    -1.264815438       H   1  noname    0.129328


@<TRIPOS>BOND
    1      1      2    2
    2      2      3    1
    3      3      4    2
    4      3      5    1
    5      5      6    2
    6      6      7    1
    7      7      8    2
    8      7      1    1
    9      1      9    1
   10      2     10    1
   11      5     11    1
   12      6     12    1
#
#	File Created by: Spartan'20 Export
#

@<TRIPOS>MOLECULE
M0018
10 10
SMALL
MULLIKEN_CHARGES


@<TRIPOS>ATOM
    1   C1         1.199283480     0.257774302    -0.653314792     C.3   1  noname   -0.049831
    2   C2         0.282488317    -0.397865181     0.286785042     C.3   1  noname    0.049938
    3   O3         0.712555371    -1.075154206    -0.907993545     O.3   1  noname   -0.264844
    4   C4        -1.177275968    -0.038772138     0.312863682     C.3   1  noname   -0.136263
    5   Cl5       -1.478916909     1.249033162     1.540499580      Cl   1  noname   -0.143080
    6   H6         2.264425979     0.326655876    -0.410721397       H   1  noname    0.110372
    7   H7         0.809356694     1.034453876    -1.320306421       H   1  noname    0.108827
    8   H8         0.688254860    -0.802389227     1.221817426       H   1  noname    0.115501
    9   H9        -1.800637609    -0.897156873     0.594230328       H   1  noname    0.140814
   10   H10       -1.499534215     0.343420408    -0.663859903       H   1  noname    0.139358


@<TRIPOS>BOND
    1      1      2    1
    2      2      3    1
    3      2      4    1
    4      4      5    1
    5      3      1    1
    6      1      6    1
    7      1      7    1
    8      2      8    1
    9      4      9    1
   10      4     10    1
#
#	File Created by: Spartan'20 Export
#

@<TRIPOS>MOLECULE
M0019
26 28
SMALL
MULLIKEN_CHARGES


@<TRIPOS>ATOM
    1   C1         0.000054712     0.000056633     1.795453923     C.3   1  noname   -0.228932
    2   C2         0.000030796    -1.255598995     0.905358350     C.3   1  noname    0.064645
    3   C3        -1.257477353    -1.253011285     0.015422588     C.3   1  noname   -0.251905
    4   C4        -1.240591510     0.000053760    -0.857064366     C.3   1  noname    0.311075
    5   C5        -1.257514825     1.253106220     0.015456958     C.3   1  noname   -0.251848
    6   C6         0.000001686     1.255738083     0.905386348     C.3   1  noname    0.064632
    7   C7         1.257508920     1.253136106     0.015438189     C.3   1  noname   -0.251809
    8   C8         1.240751703     0.000034195    -0.857051571     C.3   1  noname    0.311109
    9   C9         1.257505392    -1.253097785     0.015368991     C.3   1  noname   -0.251866
   10   C10        0.000080747    -0.000044696    -1.754883702     C.3   1  noname   -0.268477
   11   F11        2.392009423     0.000073827    -1.682286305       F   1  noname   -0.191691
   12   F12       -2.391735165     0.000048428    -1.682455119       F   1  noname   -0.191694
   13   H13        0.888286325     0.000000584     2.447351299       H   1  noname    0.091399
   14   H14       -0.888167255    -0.000035278     2.447373223       H   1  noname    0.091396
   15   H15       -0.000035414    -2.161042719     1.532347500       H   1  noname    0.069610
   16   H16       -1.286012699    -2.145165252    -0.630321971       H   1  noname    0.095802
   17   H17       -2.171220041    -1.257369507     0.630315092       H   1  noname    0.096918
   18   H18       -2.171244825     1.257202572     0.630376209       H   1  noname    0.096902
   19   H19       -1.286184146     2.145285195    -0.630228378       H   1  noname    0.095800
   20   H20       -0.000081172     2.161167452     1.532383956       H   1  noname    0.069613
   21   H21        1.285933909     2.145252771    -0.630335147       H   1  noname    0.095786
   22   H22        2.171188755     1.257424458     0.630393031       H   1  noname    0.096901
   23   H23        1.285765423    -2.145222594    -0.630432278       H   1  noname    0.095791
   24   H24        2.171219784    -1.257650072     0.630262297       H   1  noname    0.096915
   25   H25       -0.000042350    -0.893542315    -2.396659225       H   1  noname    0.099192
   26   H26       -0.000030822     0.893200217    -2.396969891       H   1  noname    0.099196


@<TRIPOS>BOND
    1      1      2    1
    2      2      3    1
    3      3      4    1
    4      4      5    1
    5      5      6    1
    6      6      7    1
    7      7      8    1
    8      8      9    1
    9      8     10    1
   10      8     11    1
   11      4     12    1
   12      6      1    1
   13      9      2    1
   14     10      4    1
   15      1     13    1
   16      1     14    1
   17      2     15    1
   18      3     16    1
   19      3     17    1
   20      5     18    1
   21      5     19    1
   22      6     20    1
   23      7     21    1
   24      7     22    1
   25      9     23    1
   26      9     24    1
   27     10     25    1
   28     10     26    1
#
#	File Created by: Spartan'20 Export
#

@<TRIPOS>MOLECULE
M0020
26 28
SMALL
MULLIKEN_CHARGES


@<TRIPOS>ATOM
    1   C1         1.452788519     0.000052490    -1.039110078     C.3   1  noname   -0.235615
    2   C2         0.725964347     1.256365228    -0.528515355     C.3   1  noname    0.085917
    3   C3        -0.725788499     1.255635548    -1.041666510     C.3   1  noname   -0.241501
    4   C4        -1.453652299     0.000079390    -0.529929751     C.3   1  noname    0.093506
    5   C5        -0.725836025    -1.255508109    -1.041604337     C.3   1  noname   -0.241556
    6   C6         0.725925970    -1.256219801    -0.528492188     C.3   1  noname    0.085939
    7   C7         0.723990487    -1.253420800     1.012886904     C.3   1  noname   -0.261510
    8   C8         0.000612850     0.000031005     1.501829347     C.3   1  noname    0.333305
    9   C9         0.724006378     1.253471643     1.012856876     C.3   1  noname   -0.261430
   10   C10       -1.446457617    -0.000059716     1.011187622     C.3   1  noname   -0.269706
   11   F11       -0.000438701     0.000072844     2.922567168       F   1  noname   -0.198667
   12   H12        1.475216543    -0.000029555    -2.141862928       H   1  noname    0.087102
   13   H13        2.498954962    -0.000020004    -0.689637925       H   1  noname    0.086064
   14   H14        1.245371353     2.158835438    -0.889733445       H   1  noname    0.060069
   15   H15       -1.248200192     2.163360415    -0.696523038       H   1  noname    0.086376
   16   H16       -0.737206581     1.273380762    -2.144204087       H   1  noname    0.087582
   17   H17       -2.496310753     0.000042147    -0.887043471       H   1  noname    0.060233
   18   H18       -0.737339458    -1.273602462    -2.144138042       H   1  noname    0.087604
   19   H19       -1.248237740    -2.163163404    -0.696222828       H   1  noname    0.086374
   20   H20        1.245273403    -2.158721086    -0.889733182       H   1  noname    0.060065
   21   H21        1.754159735    -1.258263484     1.402796648       H   1  noname    0.090919
   22   H22        0.209620487    -2.145860814     1.403591928       H   1  noname    0.090698
   23   H23        0.209703126     2.145890455     1.403644442       H   1  noname    0.090687
   24   H24        1.754179787     1.258092541     1.402739221       H   1  noname    0.090903
   25   H25       -1.963005555    -0.889390974     1.407021519       H   1  noname    0.091525
   26   H26       -1.963294528     0.888950305     1.407295490       H   1  noname    0.091534


@<TRIPOS>BOND
    1      1      2    1
    2      2      3    1
    3      3      4    1
    4      4      5    1
    5      5      6    1
    6      6      7    1
    7      7      8    1
    8      8      9    1
    9      8     10    1
   10      8     11    1
   11      6      1    1
   12      9      2    1
   13     10      4    1
   14      1     12    1
   15      1     13    1
   16      2     14    1
   17      3     15    1
   18      3     16    1
   19      4     17    1
   20      5     18    1
   21      5     19    1
   22      6     20    1
   23      7     21    1
   24      7     22    1
   25      9     23    1
   26      9     24    1
   27     10     25    1
   28     10     26    1
#
#	File Created by: Spartan'20 Export
#

@<TRIPOS>MOLECULE
M0021
28 30
SMALL
MULLIKEN_CHARGES


@<TRIPOS>ATOM
    1   C1         0.741490013    -1.254714515    -1.265589410     C.3   1  noname   -0.250663
    2   C2         1.453118397     0.000100684    -0.733509162     C.3   1  noname    0.128564
    3   C3         0.741453278     1.254839282    -1.265754329     C.3   1  noname   -0.250622
    4   C4        -0.722808830     1.254812092    -0.792174026     C.3   1  noname    0.107754
    5   C5        -1.434391125     0.000040927    -1.326444009     C.3   1  noname   -0.239506
    6   C6        -0.722790858    -1.254664390    -0.792093840     C.3   1  noname    0.107790
    7   C7        -0.775720110    -1.250268778     0.745626250     C.3   1  noname   -0.246763
    8   C8        -0.072653930     0.000069904     1.303795516     C.3   1  noname    0.194571
    9   C9         1.391673613     0.000053798     0.803901802     C.3   1  noname   -0.262043
   10   C10       -0.775753909     1.250390783     0.745568978     C.3   1  noname   -0.246575
   11   N11       -0.202722376    -0.000018702     2.768609284     N.3   1  noname   -0.431982
   12   H12        1.254844499    -2.162364683    -0.904619687       H   1  noname    0.079161
   13   H13        0.783862387    -1.275047879    -2.367940872       H   1  noname    0.084132
   14   H14        2.505517529     0.000032025    -1.064220217       H   1  noname    0.051850
   15   H15        0.783719835     1.274792557    -2.368127951       H   1  noname    0.084114
   16   H16        1.254821099     2.162583143    -0.905070317       H   1  noname    0.079166
   17   H17       -1.231894022     2.156580206    -1.171155030       H   1  noname    0.053188
   18   H18       -2.491283079    -0.000021293    -1.009679923       H   1  noname    0.082106
   19   H19       -1.423102478    -0.000082718    -2.430022373       H   1  noname    0.082914
   20   H20       -1.231849149    -2.156473938    -1.171043532       H   1  noname    0.053181
   21   H21       -1.820078662    -1.264304015     1.097246280       H   1  noname    0.092189
   22   H22       -0.284399586    -2.156146901     1.144145066       H   1  noname    0.075038
   23   H23        1.910176640    -0.887530870     1.208393907       H   1  noname    0.073936
   24   H24        1.910311595     0.887481651     1.208514902       H   1  noname    0.073953
   25   H25       -0.284515314     2.156269057     1.144124632       H   1  noname    0.075023
   26   H26       -1.820140321     1.264233077     1.097119267       H   1  noname    0.092157
   27   H27        0.281974580     0.817958023     3.150302571       H   1  noname    0.195292
   28   H28        0.281140282    -0.818598527     3.150096224       H   1  noname    0.195305


@<TRIPOS>BOND
    1      1      2    1
    2      2      3    1
    3      3      4    1
    4      4      5    1
    5      5      6    1
    6      6      7    1
    7      7      8    1
    8      8      9    1
    9      8     10    1
   10      8     11    1
   11      6      1    1
   12      9      2    1
   13     10      4    1
   14      1     12    1
   15      1     13    1
   16      2     14    1
   17      3     15    1
   18      3     16    1
   19      4     17    1
   20      5     18    1
   21      5     19    1
   22      6     20    1
   23      7     21    1
   24      7     22    1
   25      9     23    1
   26      9     24    1
   27     10     25    1
   28     10     26    1
   29     11     27    1
   30     11     28    1
#
#	File Created by: Spartan'20 Export
#

@<TRIPOS>MOLECULE
M0022
49 55
SMALL
MULLIKEN_CHARGES


@<TRIPOS>ATOM
    1   C1         4.089232038     0.000107800    -0.558230037     C.3   1  noname   -0.217917
    2   C2         3.664879556    -0.000094259     0.920539214     C.3   1  noname    0.070138
    3   C3         2.820722852    -1.247737300     1.218801414     C.3   1  noname   -0.235052
    4   C4         1.567811271    -1.254552218     0.319068205     C.3   1  noname    0.181062
    5   C5         1.995877977    -1.251228938    -1.160965307     C.3   1  noname   -0.268968
    6   C6         2.837180574     0.000267704    -1.455770276     C.3   1  noname    0.071079
    7   C7         1.995989261     1.251792913    -1.160726279     C.3   1  noname   -0.268895
    8   C8         1.567916958     1.254813690     0.319312676     C.3   1  noname    0.180934
    9   C9         2.820759099     1.247493829     1.219174717     C.3   1  noname   -0.234938
   10   C10        0.744336779     0.000126718     0.600904046     C.3   1  noname   -0.021048
   11   C11       -0.743950862     0.000076008     0.600363686     C.3   1  noname   -0.020900
   12   O12       -0.000166206     0.000104267     1.849974205     O.3   1  noname   -0.313112
   13   C13       -1.567536025    -1.254646116     0.318660099     C.3   1  noname    0.181035
   14   C14       -2.820250386    -1.247524895     1.218731230     C.3   1  noname   -0.235079
   15   C15       -3.664405211     0.000101073     0.920454527     C.3   1  noname    0.070146
   16   C16       -4.089265088    -0.000003922    -0.558140864     C.3   1  noname   -0.217978
   17   C17       -2.837522385    -0.000209010    -1.456048918     C.3   1  noname    0.071138
   18   C18       -1.996348162    -1.251771499    -1.161202123     C.3   1  noname   -0.269042
   19   C19       -1.996126795     1.251285335    -1.161575488     C.3   1  noname   -0.268921
   20   C20       -1.567547112     1.254705164     0.318356529     C.3   1  noname    0.181105
   21   C21       -2.820261695     1.247789783     1.218428398     C.3   1  noname   -0.235022
   22   H22        4.709551369    -0.886951492    -0.773528333       H   1  noname    0.081215
   23   H23        4.709643516     0.887150119    -0.773287845       H   1  noname    0.081216
   24   H24        4.561423204    -0.000275656     1.562383394       H   1  noname    0.051914
   25   H25        2.515792598    -1.259396253     2.277539759       H   1  noname    0.092498
   26   H26        3.409972468    -2.162681522     1.036562417       H   1  noname    0.084415
   27   H27        0.970657615    -2.150145249     0.538937264       H   1  noname    0.037825
   28   H28        2.573725876    -2.163752627    -1.383616744       H   1  noname    0.085526
   29   H29        1.106507398    -1.265178285    -1.811521515       H   1  noname    0.085835
   30   H30        3.139864805     0.000284959    -2.516171167       H   1  noname    0.054235
   31   H31        1.106620215     1.265740698    -1.811281653       H   1  noname    0.085864
   32   H32        2.573927326     2.164270070    -1.383243520       H   1  noname    0.085516
   33   H33        0.970811837     2.150349252     0.539470809       H   1  noname    0.037831
   34   H34        2.515639227     1.258516137     2.277857622       H   1  noname    0.092482
   35   H35        3.410135928     2.162423030     1.037459836       H   1  noname    0.084413
   36   H36       -0.970534218    -2.150307054     0.538572621       H   1  noname    0.037852
   37   H37       -3.409733402    -2.162377916     1.036770991       H   1  noname    0.084421
   38   H38       -2.515220980    -1.259029311     2.277434221       H   1  noname    0.092509
   39   H39       -4.560720939     0.000140446     1.562623349       H   1  noname    0.051902
   40   H40       -4.709652784     0.887073328    -0.773178950       H   1  noname    0.081216
   41   H41       -4.709808875    -0.887010530    -0.773042060       H   1  noname    0.081219
   42   H42       -3.140681183    -0.000367662    -2.516315066       H   1  noname    0.054227
   43   H43       -1.107515697    -1.266356582    -1.812441463       H   1  noname    0.085934
   44   H44       -2.574818804    -2.164132472    -1.383014176       H   1  noname    0.085504
   45   H45       -2.574257546     2.163687643    -1.383981096       H   1  noname    0.085518
   46   H46       -1.107142461     1.265133793    -1.812618851       H   1  noname    0.085844
   47   H47       -0.970531860     2.150396716     0.538043134       H   1  noname    0.037857
   48   H48       -2.515170694     1.259332752     2.277103049       H   1  noname    0.092484
   49   H49       -3.409810376     2.162567541     1.036374318       H   1  noname    0.084422


@<TRIPOS>BOND
    1      1      2    1
    2      2      3    1
    3      3      4    1
    4      4      5    1
    5      5      6    1
    6      6      7    1
    7      7      8    1
    8      8      9    1
    9      8     10    1
   10     10     11    1
   11     11     12    1
   12     11     13    1
   13     13     14    1
   14     14     15    1
   15     15     16    1
   16     16     17    1
   17     17     18    1
   18     17     19    1
   19     19     20    1
   20     20     21    1
   21      6      1    1
   22      9      2    1
   23     10      4    1
   24     12     10    1
   25     20     11    1
   26     18     13    1
   27     21     15    1
   28      1     22    1
   29      1     23    1
   30      2     24    1
   31      3     25    1
   32      3     26    1
   33      4     27    1
   34      5     28    1
   35      5     29    1
   36      6     30    1
   37      7     31    1
   38      7     32    1
   39      8     33    1
   40      9     34    1
   41      9     35    1
   42     13     36    1
   43     14     37    1
   44     14     38    1
   45     15     39    1
   46     16     40    1
   47     16     41    1
   48     17     42    1
   49     18     43    1
   50     18     44    1
   51     19     45    1
   52     19     46    1
   53     20     47    1
   54     21     48    1
   55     21     49    1
#
#	File Created by: Spartan'20 Export
#

@<TRIPOS>MOLECULE
M0023
26 28
SMALL
MULLIKEN_CHARGES


@<TRIPOS>ATOM
    1   C1         0.691483199     0.000054317    -1.646115633     C.3   1  noname   -0.239314
    2   C2        -0.811833128     0.000027189    -1.319646640     C.3   1  noname    0.092020
    3   C3        -1.163533704    -1.252373188    -0.500882162     C.3   1  noname   -0.256519
    4   C4        -0.344217133    -1.257695944     0.806309920     C.3   1  noname    0.097697
    5   C5         1.159406800    -1.251881904     0.482304274     C.3   1  noname   -0.243340
    6   C6         1.507454332     0.000003622    -0.340211076     C.3   1  noname    0.073419
    7   C7         1.159417865     1.251876334     0.482331139     C.3   1  noname   -0.243294
    8   C8        -0.344247612     1.257810704     0.806251618     C.3   1  noname    0.097681
    9   C9        -1.163620724     1.252429116    -0.500927106     C.3   1  noname   -0.256466
   10   C10       -0.710486123     0.000058027     1.593567495     C.3   1  noname    0.025423
   11   F11       -0.023749586     0.000068172     2.834800341       F   1  noname   -0.208955
   12   H12        0.942517522    -0.886454509    -2.253694497       H   1  noname    0.084896
   13   H13        0.942532887     0.886584225    -2.253650036       H   1  noname    0.084896
   14   H14       -1.393103800    -0.000057675    -2.256652327       H   1  noname    0.056732
   15   H15       -0.942268629    -2.164490460    -1.079727947       H   1  noname    0.088870
   16   H16       -2.243798722    -1.267293773    -0.276816592       H   1  noname    0.091229
   17   H17       -0.599467505    -2.140894143     1.414360626       H   1  noname    0.062025
   18   H18        1.421526694    -2.165744223    -0.076180106       H   1  noname    0.084932
   19   H19        1.741005016    -1.264081697     1.416898394       H   1  noname    0.100400
   20   H20        2.584475887    -0.000078164    -0.575489972       H   1  noname    0.054988
   21   H21        1.740914552     1.263811919     1.416986429       H   1  noname    0.100390
   22   H22        1.421741236     2.165707959    -0.076067697       H   1  noname    0.084936
   23   H23       -0.599454853     2.141018758     1.414288556       H   1  noname    0.062030
   24   H24       -0.942473381     2.164504900    -1.079855380       H   1  noname    0.088868
   25   H25       -2.243889218     1.267134690    -0.276833003       H   1  noname    0.091214
   26   H26       -1.786331874    -0.000044252     1.844651382       H   1  noname    0.061159


@<TRIPOS>BOND
    1      1      2    1
    2      2      3    1
    3      3      4    1
    4      4      5    1
    5      5      6    1
    6      6      7    1
    7      7      8    1
    8      8      9    1
    9      8     10    1
   10     10     11    1
   11      6      1    1
   12      9      2    1
   13     10      4    1
   14      1     12    1
   15      1     13    1
   16      2     14    1
   17      3     15    1
   18      3     16    1
   19      4     17    1
   20      5     18    1
   21      5     19    1
   22      6     20    1
   23      7     21    1
   24      7     22    1
   25      8     23    1
   26      9     24    1
   27      9     25    1
   28     10     26    1
#
#	File Created by: Spartan'20 Export
#

@<TRIPOS>MOLECULE
M0024
11 11
SMALL
MULLIKEN_CHARGES


@<TRIPOS>ATOM
    1   C1        -0.161263045     0.000009369    -0.982377932     C.3   1  noname   -0.195447
    2   C2         0.051172088     1.108005770     0.092609905     C.3   1  noname   -0.141818
    3   C3         0.062716173     0.000033996     1.159210157     C.2   1  noname    0.089427
    4   O4         0.028095421     0.000018124     2.364269000     O.2   1  noname   -0.203300
    5   C5         0.051182730    -1.107963357     0.092607392     C.3   1  noname   -0.141869
    6   H6        -1.175597847    -0.000045587    -1.400457126       H   1  noname    0.106944
    7   H7         0.559418671    -0.000026117    -1.808774163       H   1  noname    0.103386
    8   H8         1.023638444     1.620579702     0.027867133       H   1  noname    0.112161
    9   H9        -0.731495255     1.870502238     0.213641678       H   1  noname    0.113561
   10   H10       -0.731476274    -1.870494467     0.213584368       H   1  noname    0.113562
   11   H11        1.023608894    -1.620619670     0.027819588       H   1  noname    0.112164


@<TRIPOS>BOND
    1      1      2    1
    2      2      3    1
    3      3      4    2
    4      3      5    1
    5      5      1    1
    6      1      6    1
    7      1      7    1
    8      2      8    1
    9      2      9    1
   10      5     10    1
   11      5     11    1
#
#	File Created by: Spartan'20 Export
#

@<TRIPOS>MOLECULE
M0025
12 12
SMALL
MULLIKEN_CHARGES


@<TRIPOS>ATOM
    1   C1        -0.609234166    -0.780017785    -0.154909984     C.3   1  noname   -0.200916
    2   C2         0.780919101    -0.622026388     0.462367983     C.3   1  noname   -0.179784
    3   C3         1.241258986     0.747023358    -0.028527777     C.2   1  noname    0.188174
    4   O4         2.353217917     1.210870446    -0.042630728     O.2   1  noname   -0.229307
    5   O5         0.149736489     1.449661185    -0.481523421     O.3   1  noname   -0.140900
    6   C6        -1.061288293     0.679370740    -0.285360847     C.3   1  noname   -0.044675
    7   H7        -0.534304380    -1.243663688    -1.149480139       H   1  noname    0.110965
    8   H8        -1.303589960    -1.378306992     0.449045079       H   1  noname    0.114864
    9   H9         0.746083365    -0.585400335     1.563972201       H   1  noname    0.121443
   10   H10        1.511194367    -1.389501212     0.181129639       H   1  noname    0.127800
   11   H11       -1.717290567     0.869392189    -1.144549568       H   1  noname    0.119992
   12   H12       -1.556702857     1.042598482     0.630467564       H   1  noname    0.101982


@<TRIPOS>BOND
    1      1      2    1
    2      2      3    1
    3      3      4    2
    4      3      5    1
    5      5      6    1
    6      6      1    1
    7      1      7    1
    8      1      8    1
    9      2      9    1
   10      2     10    1
   11      6     11    1
   12      6     12    1
#
#	File Created by: Spartan'20 Export
#

@<TRIPOS>MOLECULE
M0026
10 10
SMALL
MULLIKEN_CHARGES


@<TRIPOS>ATOM
    1   C1         0.240355075    -0.749196198    -0.705718617     C.3   1  noname   -0.204297
    2   C2         0.240350271     0.749220390    -0.705746068     C.3   1  noname   -0.204298
    3   C3        -0.567698576     0.000027802     0.342757526     C.3   1  noname    0.064233
    4   C4        -0.123750211     0.000001968     1.707393589     C.1   1  noname   -0.307278
    5   N5         0.243386320    -0.000066928     2.812717585     N.1   1  noname    0.051512
    6   H6        -0.328059309    -1.273347218    -1.472611518       H   1  noname    0.127960
    7   H7         1.137822746    -1.263462999    -0.365250058       H   1  noname    0.139998
    8   H8        -0.328056854     1.273329341    -1.472675551       H   1  noname    0.127960
    9   H9         1.137824476     1.263489257    -0.365307893       H   1  noname    0.139998
   10   H10       -1.652173936     0.000004585     0.224441005       H   1  noname    0.139702


@<TRIPOS>BOND
    1      1      2    1
    2      2      3    1
    3      3      4    1
    4      4      5    3
    5      3      1    1
    6      1      6    1
    7      1      7    1
    8      2      8    1
    9      2      9    1
   10      3     10    1
#
#	File Created by: Spartan'20 Export
#

@<TRIPOS>MOLECULE
M0027
11 11
SMALL
MULLIKEN_CHARGES


@<TRIPOS>ATOM
    1   C1        -0.826838287    -0.692462015     0.254593498     C.3   1  noname   -0.216785
    2   C2        -0.833365081     0.709291257    -0.327700930     C.3   1  noname   -0.223896
    3   C3         0.351201180     0.242601909     0.462943949     C.3   1  noname   -0.004330
    4   N4         1.627488624     0.079465607    -0.197291741     N.3   1  noname   -0.449443
    5   H5        -0.687163433    -1.523275317    -0.439325930       H   1  noname    0.106500
    6   H6        -1.488360270    -0.908794445     1.095077827       H   1  noname    0.102891
    7   H7        -1.496327766     1.455604124     0.109765373       H   1  noname    0.115560
    8   H8        -0.710047274     0.805749645    -1.408457847       H   1  noname    0.110370
    9   H9         0.455359051     0.662953151     1.467056706       H   1  noname    0.104703
   10   H10        1.489271948    -0.095321105    -1.194712673       H   1  noname    0.200306
   11   H11        2.118781308    -0.735812810     0.178051768       H   1  noname    0.207136


@<TRIPOS>BOND
    1      1      2    1
    2      2      3    1
    3      3      4    1
    4      3      1    1
    5      1      5    1
    6      1      6    1
    7      2      7    1
    8      2      8    1
    9      3      9    1
   10      4     10    1
   11      4     11    1
#
#	File Created by: Spartan'20 Export
#

@<TRIPOS>MOLECULE
M0028
14 14
SMALL
MULLIKEN_CHARGES


@<TRIPOS>ATOM
    1   C1        -1.042037100     0.365260462     0.429766579     C.3   1  noname   -0.176073
    2   C2         0.156076305     1.231187768     0.021664259     C.3   1  noname   -0.129054
    3   C3         1.392787202     0.378319211    -0.045439229     C.2   1  noname   -0.202160
    4   C4         1.333096190    -0.963094257    -0.032418529     C.2   1  noname   -0.005138
    5   O5         0.189708599    -1.711635268    -0.045806941     O.3   1  noname   -0.194415
    6   C6        -1.004165201    -0.955757150    -0.330905241     C.3   1  noname   -0.032982
    7   H7        -1.000953585     0.151015032     1.509679871       H   1  noname    0.101546
    8   H8        -1.997297251     0.875566925     0.232633750       H   1  noname    0.101438
    9   H9         0.296716049     2.048109477     0.748738226       H   1  noname    0.103402
   10   H10       -0.038288748     1.724020982    -0.948373841       H   1  noname    0.094923
   11   H11        2.377340780     0.846936060    -0.055474899       H   1  noname    0.104396
   12   H12        2.216890067    -1.603165890    -0.004144980       H   1  noname    0.108226
   13   H13       -1.041511646    -0.770037092    -1.420625768       H   1  noname    0.085051
   14   H14       -1.838361662    -1.616726259    -0.059293256       H   1  noname    0.117391


@<TRIPOS>BOND
    1      1      2    1
    2      2      3    1
    3      3      4    2
    4      4      5    1
    5      5      6    1
    6      6      1    1
    7      1      7    1
    8      1      8    1
    9      2      9    1
   10      2     10    1
   11      3     11    1
   12      4     12    1
   13      6     13    1
   14      6     14    1
#
#	File Created by: Spartan'20 Export
#

@<TRIPOS>MOLECULE
M0029
14 14
SMALL
MULLIKEN_CHARGES


@<TRIPOS>ATOM
    1   C1        -0.733807827    -0.239215345    -0.946934021     C.3   1  noname   -0.181641
    2   C2         0.733921323     0.239337366    -0.946876908     C.3   1  noname   -0.181588
    3   C3         1.236237756    -0.103669333     0.462131231     C.3   1  noname   -0.154412
    4   C4         0.000084177     0.000299514     1.361830152     C.2   1  noname    0.097172
    5   O5         0.000109296     0.000838259     2.575780736     O.2   1  noname   -0.224363
    6   C6        -1.236196745     0.103446408     0.462138951     C.3   1  noname   -0.154535
    7   H7        -0.769268501    -1.329926068    -1.101306658       H   1  noname    0.097445
    8   H8        -1.329507666     0.222185002    -1.746202290       H   1  noname    0.108040
    9   H9         1.329586926    -0.221895279    -1.746261898       H   1  noname    0.108035
   10   H10        0.769274802     1.330100638    -1.100977445       H   1  noname    0.097445
   11   H11        2.052792873     0.522842312     0.844973679       H   1  noname    0.121149
   12   H12        1.583215547    -1.151072145     0.518330727       H   1  noname    0.111053
   13   H13       -1.584181369     1.150496413     0.518419294       H   1  noname    0.111091
   14   H14       -2.052260592    -0.523767740     0.844954452       H   1  noname    0.121157


@<TRIPOS>BOND
    1      1      2    1
    2      2      3    1
    3      3      4    1
    4      4      5    2
    5      4      6    1
    6      6      1    1
    7      1      7    1
    8      1      8    1
    9      2      9    1
   10      2     10    1
   11      3     11    1
   12      3     12    1
   13      6     13    1
   14      6     14    1
#
#	File Created by: Spartan'20 Export
#

@<TRIPOS>MOLECULE
M0030
17 17
SMALL
MULLIKEN_CHARGES


@<TRIPOS>ATOM
    1   C1        -0.051440363     0.000096166    -1.393682176     C.3   1  noname   -0.179243
    2   C2         0.336456996     1.263176530    -0.619663803     C.3   1  noname   -0.176610
    3   C3        -0.292052738     1.282843230     0.786444083     C.3   1  noname   -0.131736
    4   C4        -0.014659559     0.000136915     1.551704428     C.2   1  noname    0.097779
    5   O5         0.399095494     0.000242484     2.699513430     O.2   1  noname   -0.227411
    6   C6        -0.291717531    -1.282770882     0.786551606     C.3   1  noname   -0.131857
    7   C7         0.336176539    -1.263180497    -0.619853153     C.3   1  noname   -0.176696
    8   H8         0.433376135     0.000080618    -2.382565065       H   1  noname    0.107374
    9   H9        -1.140575288     0.000183376    -1.579350915       H   1  noname    0.086947
   10   H10        0.036709611     2.166063118    -1.173566585       H   1  noname    0.106316
   11   H11        1.434925616     1.306756963    -0.520954692       H   1  noname    0.098561
   12   H12       -1.390186023     1.374701939     0.691320958       H   1  noname    0.094526
   13   H13        0.061169121     2.130700603     1.388755817       H   1  noname    0.108732
   14   H14        0.062102903    -2.130465335     1.388772097       H   1  noname    0.108742
   15   H15       -1.389841511    -1.375246306     0.691894180       H   1  noname    0.094559
   16   H16        0.035807734    -2.165922421    -1.173692068       H   1  noname    0.106310
   17   H17        1.434652865    -1.307396499    -0.521628145       H   1  noname    0.098583


@<TRIPOS>BOND
    1      1      2    1
    2      2      3    1
    3      3      4    1
    4      4      5    2
    5      4      6    1
    6      6      7    1
    7      7      1    1
    8      1      8    1
    9      1      9    1
   10      2     10    1
   11      2     11    1
   12      3     12    1
   13      3     13    1
   14      6     14    1
   15      6     15    1
   16      7     16    1
   17      7     17    1
#
#	File Created by: Spartan'20 Export
#

@<TRIPOS>MOLECULE
M0031
18 18
SMALL
MULLIKEN_CHARGES


@<TRIPOS>ATOM
    1   C1        -0.831864015    -1.189593196     0.068720986     C.3   1  noname   -0.213833
    2   C2         0.606073283    -1.237971566    -0.451542626     C.3   1  noname   -0.166794
    3   C3         1.540371078    -0.193247737     0.190348246     C.3   1  noname   -0.175393
    4   C4         1.414198986     1.190225136    -0.421919906     C.2   1  noname    0.181788
    5   O5         2.285051913     1.701767908    -1.091080436     O.2   1  noname   -0.236776
    6   O6         0.253796455     1.887269925    -0.231681828     O.3   1  noname   -0.128532
    7   C7        -0.840547229     1.337963892     0.539393394     C.3   1  noname   -0.096068
    8   C8        -1.536689952     0.155601292    -0.127840333     C.3   1  noname   -0.155527
    9   H9        -1.421103401    -1.983775135    -0.416691761       H   1  noname    0.109504
   10   H10       -0.826019395    -1.427063286     1.148114680       H   1  noname    0.098491
   11   H11        0.621151884    -1.110256427    -1.547081405       H   1  noname    0.108250
   12   H12        1.020548985    -2.237962982    -0.251706503       H   1  noname    0.112048
   13   H13        1.357286403    -0.150907160     1.278089617       H   1  noname    0.104456
   14   H14        2.588871180    -0.478499413     0.042252202       H   1  noname    0.124582
   15   H15       -1.531458909     2.186155826     0.631739271       H   1  noname    0.129709
   16   H16       -0.491373585     1.074389769     1.552718979       H   1  noname    0.103268
   17   H17       -1.652793779     0.385542390    -1.200404006       H   1  noname    0.104244
   18   H18       -2.555499901     0.090360764     0.288571429       H   1  noname    0.105976


@<TRIPOS>BOND
    1      1      2    1
    2      2      3    1
    3      3      4    1
    4      4      5    2
    5      4      6    1
    6      6      7    1
    7      7      8    1
    8      8      1    1
    9      1      9    1
   10      1     10    1
   11      2     11    1
   12      2     12    1
   13      3     13    1
   14      3     14    1
   15      7     15    1
   16      7     16    1
   17      8     17    1
   18      8     18    1
#
#	File Created by: Spartan'20 Export
#

@<TRIPOS>MOLECULE
M0032
19 19
SMALL
MULLIKEN_CHARGES


@<TRIPOS>ATOM
    1   C1         0.547935628    -1.040948164     1.065376925     C.3   1  noname   -0.213637
    2   C2        -0.960765778    -0.836724179     0.889006107     C.3   1  noname   -0.168501
    3   C3        -1.403961660    -0.516596580    -0.554788510     C.3   1  noname   -0.118590
    4   C4        -1.216095701     0.932846611    -0.945476402     C.2   1  noname    0.087166
    5   S5        -2.501737498     1.949779247    -1.227627490     S.2   1  noname   -0.336985
    6   N6         0.058824830     1.372456670    -1.034870090   N.pl3   1  noname   -0.137846
    7   C7         1.278462513     0.616980596    -0.761226234     C.3   1  noname   -0.181273
    8   C8         1.422298124     0.161653285     0.697420806     C.3   1  noname   -0.109233
    9   H9         0.860578717    -1.902768631     0.448026606       H   1  noname    0.095573
   10   H10        0.753028551    -1.325370093     2.110048645       H   1  noname    0.108826
   11   H11       -1.321403396    -0.036627507     1.556941582       H   1  noname    0.103649
   12   H12       -1.474437520    -1.757757338     1.205609773       H   1  noname    0.108061
   13   H13       -0.846849308    -1.164280653    -1.257921732       H   1  noname    0.095649
   14   H14       -2.468585674    -0.742887140    -0.678141713       H   1  noname    0.125363
   15   H15        0.148015087     2.358633509    -1.270721455       H   1  noname    0.204175
   16   H16        1.331981646    -0.259018408    -1.432231354       H   1  noname    0.116259
   17   H17        2.115031664     1.275019358    -1.033140246       H   1  noname    0.131357
   18   H18        1.198503846     1.017430066     1.356168081       H   1  noname    0.091192
   19   H19        2.479175930    -0.101820648     0.867546700       H   1  noname    0.104785


@<TRIPOS>BOND
    1      1      2    1
    2      2      3    1
    3      3      4    1
    4      4      5    2
    5      4      6    1
    6      6      7    1
    7      7      8    1
    8      8      1    1
    9      1      9    1
   10      1     10    1
   11      2     11    1
   12      2     12    1
   13      3     13    1
   14      3     14    1
   15      6     15    1
   16      7     16    1
   17      7     17    1
   18      8     18    1
   19      8     19    1
#
#	File Created by: Spartan'20 Export
#

@<TRIPOS>MOLECULE
M0033
18 18
SMALL
MULLIKEN_CHARGES


@<TRIPOS>ATOM
    1   C1        -0.310116271     0.000026373     1.466692393     C.3   1  noname   -0.157831
    2   C2         0.194839496    -1.263120203     0.761362146     C.3   1  noname   -0.185734
    3   C3        -0.186965452    -1.260491003    -0.726424560     C.3   1  noname   -0.155517
    4   C4         0.324367703     0.000025283    -1.405518065     C.3   1  noname    0.112599
    5   C5        -0.186979475     1.260546088    -0.726430391     C.3   1  noname   -0.155474
    6   C6         0.194823158     1.263173793     0.761352357     C.3   1  noname   -0.185690
    7   F7        -0.081889956     0.000029009    -2.760639480       F   1  noname   -0.205124
    8   H8         0.000400501     0.000001074     2.523309779       H   1  noname    0.101349
    9   H9        -1.414925445    -0.000026074     1.460746175       H   1  noname    0.084091
   10   H10       -0.206884214    -2.165913635     1.246699864       H   1  noname    0.103749
   11   H11        1.293602043    -1.320897799     0.857924426       H   1  noname    0.088579
   12   H12       -1.284753573    -1.289544094    -0.833810653       H   1  noname    0.086629
   13   H13        0.215685049    -2.146584682    -1.240392654       H   1  noname    0.105857
   14   H14        1.431179671    -0.000046158    -1.415252721       H   1  noname    0.055985
   15   H15        0.215642306     2.146634850    -1.240408613       H   1  noname    0.105855
   16   H16       -1.284773219     1.289449548    -0.833816335       H   1  noname    0.086617
   17   H17       -0.206833621     2.165966240     1.246721162       H   1  noname    0.103749
   18   H18        1.293581299     1.320771389     0.857885170       H   1  noname    0.088564


@<TRIPOS>BOND
    1      1      2    1
    2      2      3    1
    3      3      4    1
    4      4      5    1
    5      5      6    1
    6      4      7    1
    7      6      1    1
    8      1      8    1
    9      1      9    1
   10      2     10    1
   11      2     11    1
   12      3     12    1
   13      3     13    1
   14      4     14    1
   15      5     15    1
   16      5     16    1
   17      6     17    1
   18      6     18    1
#
#	File Created by: Spartan'20 Export
#

@<TRIPOS>MOLECULE
M0034
20 20
SMALL
MULLIKEN_CHARGES


@<TRIPOS>ATOM
    1   C1        -1.614494801     0.412669651     0.621518681     C.3   1  noname   -0.166920
    2   C2        -1.432151394    -0.707259548    -0.406423545     C.3   1  noname   -0.129596
    3   C3        -0.055044730    -1.381790995    -0.248605146     C.3   1  noname   -0.199160
    4   C4         1.034665383    -0.405866051     0.242134241     C.3   1  noname    0.015320
    5   C5         0.712608985     1.014539455    -0.250572194     C.3   1  noname   -0.167347
    6   C6        -0.591284901     1.544114078     0.380875191     C.3   1  noname   -0.199540
    7   N7         2.353788053    -0.928819025    -0.133399636     N.3   1  noname   -0.435953
    8   H8        -1.483287847    -0.007511333     1.632998492       H   1  noname    0.086670
    9   H9        -2.639045140     0.813359637     0.587704417       H   1  noname    0.099731
   10   H10       -1.528078757    -0.277793449    -1.418199618       H   1  noname    0.076885
   11   H11       -2.233624968    -1.456238229    -0.316963285       H   1  noname    0.100512
   12   H12        0.266600663    -1.804084430    -1.216196595       H   1  noname    0.080026
   13   H13       -0.110882262    -2.232167388     0.448090811       H   1  noname    0.100428
   14   H14        1.016085878    -0.387016867     1.347373197       H   1  noname    0.070372
   15   H15        0.625033240     0.986341980    -1.351584027       H   1  noname    0.072347
   16   H16        1.552451210     1.691735968    -0.025471165       H   1  noname    0.089692
   17   H17       -0.366166910     2.048627947     1.333856204       H   1  noname    0.093305
   18   H18       -1.028618507     2.312287409    -0.276653174       H   1  noname    0.092288
   19   H19        2.434409292    -0.935495705    -1.154942473       H   1  noname    0.196305
   20   H20        3.087037513    -0.299633106     0.204459624       H   1  noname    0.199210


@<TRIPOS>BOND
    1      1      2    1
    2      2      3    1
    3      3      4    1
    4      4      5    1
    5      5      6    1
    6      4      7    1
    7      6      1    1
    8      1      8    1
    9      1      9    1
   10      2     10    1
   11      2     11    1
   12      3     12    1
   13      3     13    1
   14      4     14    1
   15      5     15    1
   16      5     16    1
   17      6     17    1
   18      6     18    1
   19      7     19    1
   20      7     20    1
#
#	File Created by: Spartan'20 Export
#

@<TRIPOS>MOLECULE
M0035
19 19
SMALL
MULLIKEN_CHARGES


@<TRIPOS>ATOM
    1   C1        -1.044423280    -0.546434361     0.867929886     C.3   1  noname   -0.203271
    2   C2        -1.260305808     0.811337757     0.194518580     C.3   1  noname   -0.127335
    3   C3         0.081718727     1.517307162    -0.074081383     C.3   1  noname   -0.246220
    4   C4         1.225850264     0.533030235    -0.419779777     C.3   1  noname    0.093343
    5   C5         0.660411378    -0.743660706    -1.041424761     C.3   1  noname   -0.102496
    6   C6        -0.250399150    -1.503351865    -0.054678120     C.3   1  noname   -0.278697
    7   O7         2.060126578     0.237691834     0.717188909     O.3   1  noname   -0.399902
    8   H8        -0.504882184    -0.387887081     1.820643413       H   1  noname    0.087799
    9   H9        -2.005333720    -1.001296714     1.151686666       H   1  noname    0.106015
   10   H10       -1.911753507     1.453050872     0.806946477       H   1  noname    0.103868
   11   H11       -1.797412222     0.651092160    -0.756224919       H   1  noname    0.084631
   12   H12        0.401010533     2.091614073     0.810020910       H   1  noname    0.102250
   13   H13       -0.037343884     2.245990979    -0.891682006       H   1  noname    0.095647
   14   H14        1.918774516     1.014186721    -1.126255319       H   1  noname    0.081347
   15   H15        0.084200229    -0.458129505    -1.936912662       H   1  noname    0.080829
   16   H16        1.483105599    -1.389624337    -1.380554498       H   1  noname    0.099828
   17   H17        0.347948234    -2.200024767     0.553023255       H   1  noname    0.117405
   18   H18       -0.949781149    -2.133148680    -0.625538468       H   1  noname    0.100101
   19   H19        1.498488845    -0.191743776     1.385173818       H   1  noname    0.280690


@<TRIPOS>BOND
    1      1      2    1
    2      2      3    1
    3      3      4    1
    4      4      5    1
    5      5      6    1
    6      4      7    1
    7      6      1    1
    8      1      8    1
    9      1      9    1
   10      2     10    1
   11      2     11    1
   12      3     12    1
   13      3     13    1
   14      4     14    1
   15      5     15    1
   16      5     16    1
   17      6     17    1
   18      6     18    1
   19      7     19    1
#
#	File Created by: Spartan'20 Export
#

@<TRIPOS>MOLECULE
M0036
17 18
SMALL
MULLIKEN_CHARGES


@<TRIPOS>ATOM
    1   C1        -0.433532820    -0.777116941    -1.125211799     C.3   1  noname   -0.186312
    2   C2        -0.434407354     0.777248478    -1.124690138     C.3   1  noname   -0.186200
    3   C3         0.355419236     1.436242453     0.017385968     C.3   1  noname   -0.115565
    4   C4         0.149466569     0.733725283     1.340545342     C.3   1  noname    0.028012
    5   C5         0.149182803    -0.733439059     1.340666766     C.3   1  noname    0.028237
    6   C6         0.354999281    -1.436318548     0.017714145     C.3   1  noname   -0.115719
    7   O7        -1.085785607     0.000364441     1.516974339     O.3   1  noname   -0.285552
    8   H8        -1.474571511    -1.122066634    -1.056104198       H   1  noname    0.098818
    9   H9        -0.045974634    -1.159903888    -2.081230370       H   1  noname    0.096072
   10   H10       -1.475705529     1.120968985    -1.053303361       H   1  noname    0.098835
   11   H11       -0.049082748     1.161077553    -2.081188934       H   1  noname    0.096069
   12   H12        0.073486380     2.498304599     0.097272932       H   1  noname    0.101506
   13   H13        1.440180770     1.423442869    -0.193896852       H   1  noname    0.074414
   14   H14        0.482367762     1.266065089     2.240066460       H   1  noname    0.093363
   15   H15        0.481895822    -1.265806012     2.240257529       H   1  noname    0.093333
   16   H16        1.439882096    -1.424639483    -0.192986093       H   1  noname    0.074435
   17   H17        0.072179485    -2.498149186     0.097728264       H   1  noname    0.101541


@<TRIPOS>BOND
    1      1      2    1
    2      2      3    1
    3      3      4    1
    4      4      5    1
    5      5      6    1
    6      5      7    1
    7      6      1    1
    8      7      4    1
    9      1      8    1
   10      1      9    1
   11      2     10    1
   12      2     11    1
   13      3     12    1
   14      3     13    1
   15      4     14    1
   16      5     15    1
   17      6     16    1
   18      6     17    1
#
#	File Created by: Spartan'20 Export
#

@<TRIPOS>MOLECULE
M0037
16 16
SMALL
MULLIKEN_CHARGES


@<TRIPOS>ATOM
    1   C1        -0.695433638    -0.321086055    -1.088092308     C.3   1  noname   -0.164260
    2   C2         0.695517045     0.321230735    -1.088011790     C.3   1  noname   -0.164171
    3   C3         1.493757585    -0.119039833     0.145106708     C.3   1  noname   -0.124039
    4   C4         0.667170531    -0.063479294     1.401197800     C.2   1  noname   -0.153088
    5   C5        -0.666996719     0.063773180     1.401149902     C.2   1  noname   -0.153058
    6   C6        -1.493708801     0.118864434     0.145099878     C.3   1  noname   -0.124087
    7   H7        -1.244284968    -0.071394222    -2.009266478       H   1  noname    0.098674
    8   H8        -0.582085098    -1.418909448    -1.072520009       H   1  noname    0.085997
    9   H9         1.244322796     0.071693260    -2.009250340       H   1  noname    0.098666
   10   H10        0.582032145     1.419052878    -1.072211801       H   1  noname    0.085992
   11   H11        2.392354877     0.510171890     0.265371298       H   1  noname    0.100813
   12   H12        1.877257095    -1.147480794     0.003299567       H   1  noname    0.093342
   13   H13        1.200313776    -0.127024476     2.354764686       H   1  noname    0.095349
   14   H14       -1.200274609     0.127485674     2.354641028       H   1  noname    0.095340
   15   H15       -1.877978389     1.147014414     0.003265595       H   1  noname    0.093361
   16   H16       -2.391963628    -0.510872343     0.265456265       H   1  noname    0.100811


@<TRIPOS>BOND
    1      1      2    1
    2      2      3    1
    3      3      4    1
    4      4      5    2
    5      5      6    1
    6      6      1    1
    7      1      7    1
    8      1      8    1
    9      2      9    1
   10      2     10    1
   11      3     11    1
   12      3     12    1
   13      4     13    1
   14      5     14    1
   15      6     15    1
   16      6     16    1
#
#	File Created by: Spartan'20 Export
#

@<TRIPOS>MOLECULE
M0038
20 20
SMALL
MULLIKEN_CHARGES


@<TRIPOS>ATOM
    1   C1        -2.218308554    -0.273197867     0.068407334     C.3   1  noname   -0.147139
    2   C2        -1.704865768     0.912497958    -0.793627893     C.3   1  noname   -0.146965
    3   C3        -0.187231081     0.697060431    -0.876255686     C.3   1  noname   -0.150812
    4   N4         0.120567116    -0.042046592     0.353704560     N.3   1  noname   -0.098365
    5   C5        -0.945415633    -1.045050062     0.445149154     C.3   1  noname   -0.131902
    6   C6         1.446543359    -0.627742874     0.438294876     C.3   1  noname   -0.113304
    7   C7         2.563658017     0.356517908     0.748052547     C.3   1  noname   -0.113888
    8   Cl8        3.129522377     1.312581869    -0.681938264      Cl   1  noname   -0.154998
    9   H9        -2.729865015     0.094685441     0.968207195       H   1  noname    0.090635
   10   H10       -2.927891815    -0.913449395    -0.473058780       H   1  noname    0.091030
   11   H11       -2.161917120     0.942967586    -1.791907291       H   1  noname    0.091065
   12   H12       -1.927197615     1.869768249    -0.302434414       H   1  noname    0.091491
   13   H13        0.382346593     1.633107763    -0.928937994       H   1  noname    0.119288
   14   H14        0.079403847     0.097172639    -1.777245913       H   1  noname    0.060653
   15   H15       -0.976101782    -1.481849264     1.455186661       H   1  noname    0.104747
   16   H16       -0.776085360    -1.880075563    -0.275127249       H   1  noname    0.055880
   17   H17        1.431283563    -1.339766361     1.282618897       H   1  noname    0.106487
   18   H18        1.710500307    -1.218316032    -0.469795150       H   1  noname    0.079559
   19   H19        2.239186054     1.082862645     1.503634057       H   1  noname    0.127877
   20   H20        3.451868510    -0.177728478     1.107073353       H   1  noname    0.133815


@<TRIPOS>BOND
    1      1      2    1
    2      2      3    1
    3      3      4    1
    4      4      5    1
    5      4      6    1
    6      6      7    1
    7      7      8    1
    8      5      1    1
    9      1      9    1
   10      1     10    1
   11      2     11    1
   12      2     12    1
   13      3     13    1
   14      3     14    1
   15      5     15    1
   16      5     16    1
   17      6     17    1
   18      6     18    1
   19      7     19    1
   20      7     20    1
#
#	File Created by: Spartan'20 Export
#

@<TRIPOS>MOLECULE
M0039
14 14
SMALL
MULLIKEN_CHARGES


@<TRIPOS>ATOM
    1   C1         0.895154641    -0.776751601    -0.068945099     C.3   1  noname   -0.179589
    2   C2         0.894980483     0.776855985    -0.070075299     C.3   1  noname   -0.180071
    3   C3        -0.586306859     1.154986147     0.195220189     C.3   1  noname   -0.134881
    4   N4        -1.405615445     0.000206845    -0.203131496     N.3   1  noname   -0.246846
    5   C5        -0.586558505    -1.155020325     0.194452087     C.3   1  noname   -0.135269
    6   H6         1.568016740    -1.195549524     0.693380177       H   1  noname    0.092965
    7   H7         1.228494816    -1.167871702    -1.041716962       H   1  noname    0.089523
    8   H8         1.569262860     1.197008985     0.690232968       H   1  noname    0.092912
    9   H9         1.226231616     1.166501977    -1.044168232       H   1  noname    0.089567
   10   H10       -0.910076798     2.062478794    -0.333007807       H   1  noname    0.110597
   11   H11       -0.743404277     1.326115484     1.273919310       H   1  noname    0.082140
   12   H12       -1.495667849     0.000545418    -1.223675995       H   1  noname    0.182388
   13   H13       -0.744649525    -1.327663295     1.272752934       H   1  noname    0.082141
   14   H14       -0.909861899    -2.061843189    -0.335236777       H   1  noname    0.110605


@<TRIPOS>BOND
    1      1      2    1
    2      2      3    1
    3      3      4    1
    4      4      5    1
    5      5      1    1
    6      1      6    1
    7      1      7    1
    8      2      8    1
    9      2      9    1
   10      3     10    1
   11      3     11    1
   12      4     12    1
   13      5     13    1
   14      5     14    1
#
#	File Created by: Spartan'20 Export
#

@<TRIPOS>MOLECULE
M0040
17 17
SMALL
MULLIKEN_CHARGES


@<TRIPOS>ATOM
    1   C1         0.181883486     0.000060724    -1.373438476     C.3   1  noname   -0.152892
    2   C2        -0.285444533    -1.259728435    -0.636525482     C.3   1  noname   -0.143525
    3   C3         0.147986361    -1.213503944     0.829517681     C.3   1  noname   -0.125422
    4   N4        -0.374329474     0.000053316     1.461805236     N.3   1  noname   -0.269197
    5   C5         0.148103166     1.213546670     0.829458677     C.3   1  noname   -0.125415
    6   C6        -0.285575637     1.259798310    -0.636515885     C.3   1  noname   -0.143457
    7   H7        -0.178830134     0.000004062    -2.414073128       H   1  noname    0.098507
    8   H8         1.286201860     0.000081625    -1.420847587       H   1  noname    0.077370
    9   H9        -1.385287598    -1.328717646    -0.677993053       H   1  noname    0.076923
   10   H10        0.120889527    -2.164648380    -1.115551809       H   1  noname    0.091218
   11   H11        1.261726607    -1.266345350     0.871085267       H   1  noname    0.066457
   12   H12       -0.242148295    -2.087291446     1.373958237       H   1  noname    0.099612
   13   H13       -0.150378735     0.000025476     2.457737615       H   1  noname    0.182412
   14   H14        1.261864092     1.266037787     0.870806350       H   1  noname    0.066455
   15   H15       -0.241721632     2.087379334     1.374022820       H   1  noname    0.099615
   16   H16        0.120516619     2.164766547    -1.115632660       H   1  noname    0.091218
   17   H17       -1.385455682     1.328481351    -0.677813806       H   1  noname    0.076904


@<TRIPOS>BOND
    1      1      2    1
    2      2      3    1
    3      3      4    1
    4      4      5    1
    5      5      6    1
    6      6      1    1
    7      1      7    1
    8      1      8    1
    9      2      9    1
   10      2     10    1
   11      3     11    1
   12      3     12    1
   13      4     13    1
   14      5     14    1
   15      5     15    1
   16      6     16    1
   17      6     17    1
#
#	File Created by: Spartan'20 Export
#

@<TRIPOS>MOLECULE
M0041
15 15
SMALL
MULLIKEN_CHARGES


@<TRIPOS>ATOM
    1   C1         0.338273983    -1.157588335    -0.254526605     C.3   1  noname   -0.190096
    2   C2        -1.014315163    -0.520028098    -0.648029199     C.3   1  noname   -0.171288
    3   C3        -1.253079582     0.760615421     0.135729185     C.3   1  noname   -0.079266
    4   O4        -0.178235087     1.704563832    -0.095245119     O.3   1  noname   -0.134225
    5   C5         1.096867779     1.245562322     0.112704846     C.2   1  noname    0.197098
    6   O6         2.035258779     1.981731897    -0.088841452     O.2   1  noname   -0.235759
    7   C7         1.188485218    -0.187887581     0.595152948     C.3   1  noname   -0.198432
    8   H8         0.900655268    -1.433180443    -1.157627716       H   1  noname    0.115034
    9   H9         0.188063329    -2.086316427     0.314712975       H   1  noname    0.106788
   10   H10       -1.022472537    -0.267489322    -1.718861376       H   1  noname    0.110392
   11   H11       -1.852671679    -1.211632100    -0.475577846       H   1  noname    0.103934
   12   H12       -2.162629909     1.280696334    -0.190906162       H   1  noname    0.126679
   13   H13       -1.341964685     0.564649252     1.218645215       H   1  noname    0.102372
   14   H14        2.247117580    -0.470716713     0.613306779       H   1  noname    0.129436
   15   H15        0.830646706    -0.202980040     1.639363527       H   1  noname    0.116026


@<TRIPOS>BOND
    1      1      2    1
    2      2      3    1
    3      3      4    1
    4      4      5    1
    5      5      6    2
    6      5      7    1
    7      7      1    1
    8      1      8    1
    9      1      9    1
   10      2     10    1
   11      2     11    1
   12      3     12    1
   13      3     13    1
   14      7     14    1
   15      7     15    1
#
#	File Created by: Spartan'20 Export
#

@<TRIPOS>MOLECULE
M0042
13 13
SMALL
MULLIKEN_CHARGES


@<TRIPOS>ATOM
    1   C1         0.229709748    -0.731527687    -0.754592198     C.3   1  noname   -0.185114
    2   C2        -0.229659125     0.731552809    -0.754591394     C.3   1  noname   -0.185109
    3   C3         0.137011067     1.167395628     0.665315305     C.3   1  noname   -0.031551
    4   O4         0.000062389     0.000008783     1.497194418     O.3   1  noname   -0.249091
    5   C5        -0.137003192    -1.167344414     0.665310816     C.3   1  noname   -0.031572
    6   H6        -0.255126234    -1.344327444    -1.527277454       H   1  noname    0.106340
    7   H7         1.319287476    -0.790268125    -0.904406871       H   1  noname    0.094767
    8   H8        -1.319236630     0.790169595    -0.904381398       H   1  noname    0.094765
    9   H9         0.255087215     1.344344212    -1.527332744       H   1  noname    0.106347
   10   H10       -0.520656392     1.958245839     1.059659090       H   1  noname    0.093634
   11   H11        1.181361514     1.531712014     0.712750947       H   1  noname    0.077087
   12   H12       -1.181383613    -1.531634734     0.712738389       H   1  noname    0.077083
   13   H13        0.520545777    -1.958326476     1.059613094       H   1  noname    0.093638


@<TRIPOS>BOND
    1      1      2    1
    2      2      3    1
    3      3      4    1
    4      4      5    1
    5      5      1    1
    6      1      6    1
    7      1      7    1
    8      2      8    1
    9      2      9    1
   10      3     10    1
   11      3     11    1
   12      5     12    1
   13      5     13    1
#
#	File Created by: Spartan'20 Export
#

@<TRIPOS>MOLECULE
M0043
16 16
SMALL
MULLIKEN_CHARGES


@<TRIPOS>ATOM
    1   C1         0.080794053    -1.101300364    -0.633199245     C.3   1  noname   -0.157858
    2   C2         1.145874373    -0.524683015     0.302426253     C.3   1  noname   -0.186056
    3   C3         1.201992691     1.006210564     0.133422942     C.3   1  noname   -0.052083
    4   O4        -0.042891793     1.556559695    -0.318809106     O.3   1  noname   -0.244102
    5   C5        -1.151330100     0.896873249     0.292581329     C.3   1  noname   -0.075610
    6   C6        -1.302262628    -0.537950076    -0.251577460     C.3   1  noname   -0.162680
    7   H7         0.323764964    -0.816692956    -1.669328519       H   1  noname    0.092265
    8   H8         0.077621431    -2.200543540    -0.598673074       H   1  noname    0.100874
    9   H9         2.138277018    -0.954602742     0.099195437       H   1  noname    0.105191
   10   H10        0.895696832    -0.788135292     1.343179304       H   1  noname    0.096920
   11   H11        1.501972890     1.492301737     1.083731679       H   1  noname    0.079090
   12   H12        1.935140085     1.287007515    -0.637968236       H   1  noname    0.099880
   13   H13       -1.023028179     0.888526372     1.394518351       H   1  noname    0.083890
   14   H14       -2.036095189     1.510265027     0.071306611       H   1  noname    0.110900
   15   H15       -1.966718407    -0.545631296    -1.128482692       H   1  noname    0.095312
   16   H16       -1.778808041    -1.168204875     0.517676427       H   1  noname    0.084561


@<TRIPOS>BOND
    1      1      2    1
    2      2      3    1
    3      3      4    1
    4      4      5    1
    5      5      6    1
    6      6      1    1
    7      1      7    1
    8      1      8    1
    9      2      9    1
   10      2     10    1
   11      3     11    1
   12      3     12    1
   13      5     13    1
   14      5     14    1
   15      6     15    1
   16      6     16    1
#
#	File Created by: Spartan'20 Export
#

@<TRIPOS>MOLECULE
M0044
15 15
SMALL
MULLIKEN_CHARGES


@<TRIPOS>ATOM
    1   C1        -0.758902337    -0.132517721    -1.062777819     C.3   1  noname   -0.192128
    2   C2         0.759051381     0.132709298    -1.062696182     C.3   1  noname   -0.192108
    3   C3         1.297140785    -0.397755517     0.265798216     C.3   1  noname   -0.225962
    4   S4         0.000059768     0.000173730     1.497837290       S   1  noname    0.748149
    5   O5         0.367654455     1.213207221     2.220789001     O.2   1  noname   -0.373093
    6   O6        -0.367416902    -1.212437630     2.221547975     O.2   1  noname   -0.373094
    7   C7        -1.297219776     0.397445889     0.265824707     C.3   1  noname   -0.225966
    8   H8        -1.257420345     0.349139459    -1.915861908       H   1  noname    0.120166
    9   H9        -0.948549966    -1.215022824    -1.138619972       H   1  noname    0.113685
   10   H10        1.257558962    -0.348740517    -1.915907974       H   1  noname    0.120163
   11   H11        0.948703985     1.215244367    -1.138202661       H   1  noname    0.113703
   12   H12        1.398446544    -1.491506770     0.270259510       H   1  noname    0.138055
   13   H13        2.226591515     0.069891738     0.610798541       H   1  noname    0.141868
   14   H14       -2.226342209    -0.070936141     0.610754595       H   1  noname    0.141859
   15   H15       -1.399355859     1.491105415     0.270456681       H   1  noname    0.138076


@<TRIPOS>BOND
    1      1      2    1
    2      2      3    1
    3      3      4    1
    4      4      5    2
    5      4      6    2
    6      4      7    1
    7      7      1    1
    8      1      8    1
    9      1      9    1
   10      2     10    1
   11      2     11    1
   12      3     12    1
   13      3     13    1
   14      7     14    1
   15      7     15    1
#
#	File Created by: Spartan'20 Export
#

@<TRIPOS>MOLECULE
M0045
14 14
SMALL
MULLIKEN_CHARGES


@<TRIPOS>ATOM
    1   C1         0.656390281    -0.922616084    -0.219269395     C.3   1  noname   -0.167326
    2   C2        -0.725505831    -0.848383601     0.441463750     C.3   1  noname   -0.215093
    3   C3        -1.287561595     0.555446747     0.171953387     C.3   1  noname   -0.207069
    4   S4         0.116850503     1.715966125    -0.265795651       S   1  noname    0.434821
    5   O5         0.100578490     1.845302016    -1.764504341     O.2   1  noname   -0.467277
    6   C6         1.336830818     0.389397090     0.145995100     C.3   1  noname   -0.199278
    7   H7         0.560775708    -0.990858326    -1.314192671       H   1  noname    0.120269
    8   H8         1.231455110    -1.796671068     0.121644060       H   1  noname    0.112780
    9   H9        -0.617217805    -1.004166479     1.526781227       H   1  noname    0.102096
   10   H10       -1.406438031    -1.627841734     0.068799166       H   1  noname    0.119405
   11   H11       -1.852294855     0.981042040     1.012552452       H   1  noname    0.119048
   12   H12       -1.905017709     0.610341218    -0.735552354       H   1  noname    0.133640
   13   H13        2.249133982     0.626771914    -0.416700866       H   1  noname    0.135810
   14   H14        1.542020935     0.466270142     1.226826136       H   1  noname    0.105690


@<TRIPOS>BOND
    1      1      2    1
    2      2      3    1
    3      3      4    1
    4      4      5    2
    5      4      6    1
    6      6      1    1
    7      1      7    1
    8      1      8    1
    9      2      9    1
   10      2     10    1
   11      3     11    1
   12      3     12    1
   13      6     13    1
   14      6     14    1
#
#	File Created by: Spartan'20 Export
#

@<TRIPOS>MOLECULE
M0046
13 13
SMALL
MULLIKEN_CHARGES


@<TRIPOS>ATOM
    1   C1        -0.715010152     0.272084825    -0.713480678     C.3   1  noname   -0.176317
    2   C2         0.715004138    -0.272000144    -0.713479044     C.3   1  noname   -0.176342
    3   C3         1.339273323     0.142944641     0.620638779     C.3   1  noname   -0.172197
    4   S4        -0.000025377     0.000192785     1.877668899     S.3   1  noname   -0.123079
    5   C5        -1.339217296    -0.142956888     0.620625868     C.3   1  noname   -0.172219
    6   H6        -0.693541189     1.371515294    -0.787852500       H   1  noname    0.097609
    7   H7        -1.303808661    -0.108642415    -1.562608390       H   1  noname    0.108122
    8   H8         1.303806353     0.108627414    -1.562646265       H   1  noname    0.108132
    9   H9         0.693400464    -1.371417975    -0.787849186       H   1  noname    0.097609
   10   H10        1.695879609     1.182960906     0.589544995       H   1  noname    0.114450
   11   H11        2.176096245    -0.504255948     0.914981713       H   1  noname    0.123204
   12   H12       -1.695611615    -1.183062119     0.589545187       H   1  noname    0.114448
   13   H13       -2.176245842     0.504009622     0.914910622       H   1  noname    0.123206


@<TRIPOS>BOND
    1      1      2    1
    2      2      3    1
    3      3      4    1
    4      4      5    1
    5      5      1    1
    6      1      6    1
    7      1      7    1
    8      2      8    1
    9      2      9    1
   10      3     10    1
   11      3     11    1
   12      5     12    1
   13      5     13    1
#
#	File Created by: Spartan'20 Export
#

@<TRIPOS>MOLECULE
M0047
16 16
SMALL
MULLIKEN_CHARGES


@<TRIPOS>ATOM
    1   C1        -0.210776448    -1.203624269    -0.143987181     C.3   1  noname   -0.152808
    2   C2         1.261743044    -0.750938327    -0.034020664     C.3   1  noname   -0.166649
    3   C3         1.408809148     0.747628084     0.266579288     C.3   1  noname   -0.191525
    4   S4         0.167451171     1.352147730     1.456992191     S.3   1  noname   -0.121934
    5   C5        -1.342926425     0.996864219     0.461191235     C.3   1  noname   -0.177584
    6   C6        -1.120295460    -0.069075888    -0.621657557     C.3   1  noname   -0.202062
    7   H7        -0.568037023    -1.547037433     0.840359499       H   1  noname    0.100033
    8   H8        -0.284376959    -2.065685289    -0.823674087       H   1  noname    0.101376
    9   H9         1.791094621    -0.959664269    -0.980241279       H   1  noname    0.091687
   10   H10        1.769029105    -1.336141862     0.747756823       H   1  noname    0.095184
   11   H11        2.384984823     0.970178236     0.719944313       H   1  noname    0.130964
   12   H12        1.344772860     1.351265286    -0.651354229       H   1  noname    0.121617
   13   H13       -2.090654694     0.647705910     1.189228449       H   1  noname    0.117475
   14   H14       -1.714850342     1.933020542     0.019374767       H   1  noname    0.120414
   15   H15       -0.691224351     0.395860198    -1.524183196       H   1  noname    0.100716
   16   H16       -2.104743070    -0.462502869    -0.922308370       H   1  noname    0.109473


@<TRIPOS>BOND
    1      1      2    1
    2      2      3    1
    3      3      4    1
    4      4      5    1
    5      5      6    1
    6      6      1    1
    7      1      7    1
    8      1      8    1
    9      2      9    1
   10      2     10    1
   11      3     11    1
   12      3     12    1
   13      5     13    1
   14      5     14    1
   15      6     15    1
   16      6     16    1
#
#	File Created by: Spartan'20 Export
#

@<TRIPOS>MOLECULE
M0048
21 22
SMALL
MULLIKEN_CHARGES


@<TRIPOS>ATOM
    1   C1         0.443526498    -1.358074975    -0.686730893     C.3   1  noname   -0.199445
    2   C2        -0.693832580    -1.451561233     0.373447331     C.3   1  noname   -0.163912
    3   N3        -0.996886373    -0.136414002     0.962811890     N.3   1  noname   -0.041885
    4   C4        -1.485097116     0.766460702    -0.089977552     C.3   1  noname   -0.162406
    5   C5        -0.444205063     0.920279902    -1.243836581     C.3   1  noname   -0.214527
    6   C6         0.821245019     0.122042987    -0.856320667     C.3   1  noname    0.058258
    7   C7         1.305508321     0.696834653     0.478794154     C.3   1  noname    0.011773
    8   C8         0.219485964     0.419061553     1.558594503     C.3   1  noname   -0.177316
    9   Cl9        2.922988971     0.007770452     0.962819134      Cl   1  noname   -0.176276
   10   H10        0.121806752    -1.767210148    -1.656531928       H   1  noname    0.086960
   11   H11        1.328502762    -1.928447892    -0.370421627       H   1  noname    0.104218
   12   H12       -0.413994942    -2.132101201     1.191861592       H   1  noname    0.099754
   13   H13       -1.623517770    -1.838830796    -0.070474335       H   1  noname    0.098630
   14   H14       -2.438864557     0.367088521    -0.466837842       H   1  noname    0.100831
   15   H15       -1.703305176     1.739474808     0.377229453       H   1  noname    0.099521
   16   H16       -0.837737539     0.524877652    -2.193240821       H   1  noname    0.091804
   17   H17       -0.194168174     1.979344187    -1.415071409       H   1  noname    0.096554
   18   H18        1.603373484     0.241544206    -1.618742616       H   1  noname    0.081225
   19   H19        1.501107977     1.772583238     0.371352026       H   1  noname    0.104121
   20   H20        0.599507445    -0.294858802     2.303368634       H   1  noname    0.108240
   21   H21       -0.035443901     1.350136187     2.087907554       H   1  noname    0.102928


@<TRIPOS>BOND
    1      1      2    1
    2      2      3    1
    3      3      4    1
    4      4      5    1
    5      5      6    1
    6      6      7    1
    7      7      8    1
    8      7      9    1
    9      6      1    1
   10      8      3    1
   11      1     10    1
   12      1     11    1
   13      2     12    1
   14      2     13    1
   15      4     14    1
   16      4     15    1
   17      5     16    1
   18      5     17    1
   19      6     18    1
   20      7     19    1
   21      8     20    1
   22      8     21    1
#
#	File Created by: Spartan'20 Export
#

@<TRIPOS>MOLECULE
M0049
21 22
SMALL
MULLIKEN_CHARGES


@<TRIPOS>ATOM
    1   C1        -1.445134824     0.000025890    -0.672912723     C.3   1  noname   -0.182008
    2   C2        -1.384465856    -0.000007141     0.884997641     C.3   1  noname   -0.164977
    3   N3         0.000472728     0.000053066     1.383147277     N.3   1  noname   -0.049247
    4   C4         0.692760328     1.200225959     0.884479060     C.3   1  noname   -0.164368
    5   C5         0.723622498     1.250246460    -0.675397257     C.3   1  noname   -0.180780
    6   C6        -0.000696013     0.000024712    -1.206202348     C.3   1  noname    0.065799
    7   C7         0.723628869    -1.250163598    -0.675357213     C.3   1  noname   -0.180808
    8   C8         0.692698699    -1.200153900     0.884507832     C.3   1  noname   -0.164408
    9   H9        -1.982673841     0.885424778    -1.048446728       H   1  noname    0.081619
   10   H10       -1.982638807    -0.885401901    -1.048443832       H   1  noname    0.081611
   11   H11       -1.890180404    -0.885744977     1.300401141       H   1  noname    0.093929
   12   H12       -1.890376951     0.885559070     1.300495412       H   1  noname    0.093926
   13   H13        1.712071114     1.198359195     1.300525213       H   1  noname    0.093789
   14   H14        0.175164858     2.080087345     1.297246771       H   1  noname    0.093520
   15   H15        1.759472395     1.271327238    -1.049394795       H   1  noname    0.081573
   16   H16        0.225499576     2.158161180    -1.050837082       H   1  noname    0.081071
   17   H17       -0.001236868    -0.000063941    -2.306496555       H   1  noname    0.065255
   18   H18        0.225559828    -2.158131464    -1.050778156       H   1  noname    0.081072
   19   H19        1.759484792    -1.271326423    -1.049337555       H   1  noname    0.081585
   20   H20        1.711973429    -1.198490043     1.300618429       H   1  noname    0.093793
   21   H21        0.174994450    -2.080011505     1.297185468       H   1  noname    0.093526


@<TRIPOS>BOND
    1      1      2    1
    2      2      3    1
    3      3      4    1
    4      4      5    1
    5      5      6    1
    6      6      7    1
    7      7      8    1
    8      6      1    1
    9      8      3    1
   10      1      9    1
   11      1     10    1
   12      2     11    1
   13      2     12    1
   14      4     13    1
   15      4     14    1
   16      5     15    1
   17      5     16    1
   18      6     17    1
   19      7     18    1
   20      7     19    1
   21      8     20    1
   22      8     21    1
#
#	File Created by: Spartan'20 Export
#

@<TRIPOS>MOLECULE
M0050
20 21
SMALL
MULLIKEN_CHARGES


@<TRIPOS>ATOM
    1   C1        -1.382522358     0.000311703    -0.780978290     C.3   1  noname   -0.135713
    2   C2        -1.382533809    -0.000291833     0.781025775     C.3   1  noname   -0.135694
    3   N3        -0.000032070     0.000022004     1.291264139     N.3   1  noname   -0.068134
    4   C4         0.692323297    -1.197274234     0.782134593     C.3   1  noname   -0.135570
    5   C5         0.691805645    -1.197564768    -0.782106370     C.3   1  noname   -0.135628
    6   N6        -0.000031340     0.000027578    -1.291205079     N.3   1  noname   -0.068132
    7   C7         0.692322639     1.197326298    -0.782112410     C.3   1  noname   -0.135577
    8   C8         0.691798368     1.197619806     0.782122786     C.3   1  noname   -0.135560
    9   H9        -1.893654064     0.889269431    -1.184104167       H   1  noname    0.087702
   10   H10       -1.894286845    -0.887993176    -1.184752293       H   1  noname    0.087648
   11   H11       -1.893638744    -0.889307089     1.184068910       H   1  noname    0.087695
   12   H12       -1.894378579     0.887963415     1.184780771       H   1  noname    0.087647
   13   H13        1.717479190    -1.196474725     1.185002146       H   1  noname    0.087692
   14   H14        0.176869359    -2.084031875     1.184205496       H   1  noname    0.087176
   15   H15        1.716671760    -1.197723386    -1.185718800       H   1  noname    0.087656
   16   H16        0.175391180    -2.084060409    -1.183555719       H   1  noname    0.087231
   17   H17        1.717464385     1.196389376    -1.185008740       H   1  noname    0.087689
   18   H18        0.176898522     2.084045589    -1.184290543       H   1  noname    0.087181
   19   H19        0.175381076     2.084092081     1.183552469       H   1  noname    0.087224
   20   H20        1.716672386     1.197654214     1.185675324       H   1  noname    0.087639


@<TRIPOS>BOND
    1      1      2    1
    2      2      3    1
    3      3      4    1
    4      4      5    1
    5      5      6    1
    6      6      7    1
    7      7      8    1
    8      6      1    1
    9      8      3    1
   10      1      9    1
   11      1     10    1
   12      2     11    1
   13      2     12    1
   14      4     13    1
   15      4     14    1
   16      5     15    1
   17      5     16    1
   18      7     17    1
   19      7     18    1
   20      8     19    1
   21      8     20    1
#
#	File Created by: Spartan'20 Export
#

@<TRIPOS>MOLECULE
M0051
11 11
SMALL
MULLIKEN_CHARGES


@<TRIPOS>ATOM
    1   C1         0.984238154     0.000003567     0.049465106     C.3   1  noname   -0.161972
    2   C2        -0.148940557     1.053216580    -0.001441160     C.3   1  noname   -0.118981
    3   N3        -1.096345346     0.000000924     0.448547523     N.3   1  noname   -0.273857
    4   C4        -0.148940617    -1.053203495    -0.001450051     C.3   1  noname   -0.118985
    5   H5         1.715193029    -0.000003057    -0.767791617       H   1  noname    0.101473
    6   H6         1.509536494    -0.000001600     1.013060743       H   1  noname    0.091517
    7   H7        -0.323738744     1.413259412    -1.033867624       H   1  noname    0.076430
    8   H8        -0.079522811     1.923157591     0.670209827       H   1  noname    0.097463
    9   H9        -2.008208146    -0.000014436    -0.013047278       H   1  noname    0.183189
   10   H10       -0.323744281    -1.413261305    -1.033878786       H   1  noname    0.076429
   11   H11       -0.079527177    -1.923154180     0.670193318       H   1  noname    0.097462


@<TRIPOS>BOND
    1      1      2    1
    2      2      3    1
    3      3      4    1
    4      4      1    1
    5      1      5    1
    6      1      6    1
    7      2      7    1
    8      2      8    1
    9      3      9    1
   10      4     10    1
   11      4     11    1
#
#	File Created by: Spartan'20 Export
#

@<TRIPOS>MOLECULE
M0052
16 16
SMALL
MULLIKEN_CHARGES


@<TRIPOS>ATOM
    1   C1        -1.327348191     0.338117686     0.289190279     C.3   1  noname   -0.093007
    2   C2        -0.943265989    -0.943165353    -0.451001895     C.3   1  noname   -0.159177
    3   N3         0.411924484    -1.418265569    -0.118032671     N.3   1  noname   -0.268466
    4   C4         1.327424888    -0.338109169     0.289177647     C.3   1  noname   -0.093001
    5   C5         0.943315698     0.943213962    -0.450974826     C.3   1  noname   -0.159128
    6   N6        -0.411903116     1.418302122    -0.118027041     N.3   1  noname   -0.268463
    7   H7        -1.297603325     0.131672603     1.380108537       H   1  noname    0.067810
    8   H8        -2.364294890     0.626090217     0.043645085       H   1  noname    0.099181
    9   H9        -1.664967847    -1.741891314    -0.227229503       H   1  noname    0.112822
   10   H10       -1.010645495    -0.753951017    -1.536871106       H   1  noname    0.092151
   11   H11        0.357952565    -2.119177334     0.620157973       H   1  noname    0.183803
   12   H12        2.364367764    -0.626148931     0.043686137       H   1  noname    0.099193
   13   H13        1.297545022    -0.131731525     1.380087515       H   1  noname    0.067808
   14   H14        1.664987613     1.741958063    -0.227250634       H   1  noname    0.112827
   15   H15        1.010553648     0.753884600    -1.536836800       H   1  noname    0.092140
   16   H16       -0.358042828     2.119200960     0.620171302       H   1  noname    0.183801


@<TRIPOS>BOND
    1      1      2    1
    2      2      3    1
    3      3      4    1
    4      4      5    1
    5      5      6    1
    6      6      1    1
    7      1      7    1
    8      1      8    1
    9      2      9    1
   10      2     10    1
   11      3     11    1
   12      4     12    1
   13      4     13    1
   14      5     14    1
   15      5     15    1
   16      6     16    1
#
#	File Created by: Spartan'20 Export
#

@<TRIPOS>MOLECULE
M0053
10 10
SMALL
MULLIKEN_CHARGES


@<TRIPOS>ATOM
    1   C1        -0.017504156     0.000003779     0.798453345     C.3   1  noname   -0.229844
    2   C2         0.006871104     1.039744857    -0.338088213     C.3   1  noname   -0.005695
    3   O3         0.000145940     0.000006285    -1.355981511     O.3   1  noname   -0.258137
    4   C4         0.006871447    -1.039732874    -0.338089504     C.3   1  noname   -0.005700
    5   H5         0.860693629     0.000000189     1.454803755       H   1  noname    0.110147
    6   H6        -0.927342894    -0.000007486     1.410346816       H   1  noname    0.109331
    7   H7        -0.880470130     1.690451610    -0.415958371       H   1  noname    0.083969
    8   H8         0.915604238     1.662487690    -0.399768447       H   1  noname    0.082477
    9   H9        -0.880463707    -1.690457866    -0.415951992       H   1  noname    0.083968
   10   H10        0.915594530    -1.662496184    -0.399765878       H   1  noname    0.082477


@<TRIPOS>BOND
    1      1      2    1
    2      2      3    1
    3      3      4    1
    4      4      1    1
    5      1      5    1
    6      1      6    1
    7      2      7    1
    8      2      8    1
    9      4      9    1
   10      4     10    1
#
#	File Created by: Spartan'20 Export
#

@<TRIPOS>MOLECULE
M0054
9 9
SMALL
MULLIKEN_CHARGES


@<TRIPOS>ATOM
    1   C1         0.768551697     0.000004293    -0.089779226     C.3   1  noname   -0.223039
    2   C2        -0.589736891     0.000003768    -0.800912120     C.3   1  noname   -0.024859
    3   O3        -1.283985958     0.000028891     0.503648978     O.3   1  noname   -0.162211
    4   C4        -0.075922611     0.000003453     1.184058806     C.2   1  noname    0.210878
    5   O5         0.092642320    -0.000032674     2.367841741     O.2   1  noname   -0.205511
    6   H6         1.388498676     0.896980069    -0.213235791       H   1  noname    0.131294
    7   H7         1.388503528    -0.896964777    -0.213240193       H   1  noname    0.131294
    8   H8        -0.844278875    -0.904275493    -1.369169086       H   1  noname    0.111739
    9   H9        -0.844271886     0.904252468    -1.369213109       H   1  noname    0.111740


@<TRIPOS>BOND
    1      1      2    1
    2      2      3    1
    3      3      4    1
    4      4      5    2
    5      4      1    1
    6      1      6    1
    7      1      7    1
    8      2      8    1
    9      2      9    1
#
#	File Created by: Spartan'20 Export
#

@<TRIPOS>MOLECULE
M0055
11 11
SMALL
MULLIKEN_CHARGES


@<TRIPOS>ATOM
    1   C1        -0.661199497     0.625018161     0.360925014     C.3   1  noname   -0.147992
    2   C2        -0.846541163    -0.610672129    -0.550954439     C.3   1  noname   -0.014149
    3   O3         0.489683187    -1.044056714    -0.960747263     O.3   1  noname   -0.205409
    4   C4         1.368231640    -0.360633295    -0.161548751     C.2   1  noname    0.004130
    5   C5         0.826613922     0.572259331     0.630423623     C.2   1  noname   -0.196894
    6   H6        -0.949505369     1.564726511    -0.142261137       H   1  noname    0.094753
    7   H7        -1.271939530     0.550374960     1.273899900       H   1  noname    0.102495
    8   H8        -1.422430599    -0.408760647    -1.463708042       H   1  noname    0.107696
    9   H9        -1.310420836    -1.453631042    -0.014088473       H   1  noname    0.091533
   10   H10        2.409308466    -0.656334944    -0.284176946       H   1  noname    0.120233
   11   H11        1.368199779     1.221709807     1.312236514       H   1  noname    0.112915


@<TRIPOS>BOND
    1      1      2    1
    2      2      3    1
    3      3      4    1
    4      4      5    2
    5      5      1    1
    6      1      6    1
    7      1      7    1
    8      2      8    1
    9      2      9    1
   10      4     10    1
   11      5     11    1
#
#	File Created by: Spartan'20 Export
#

@<TRIPOS>MOLECULE
M0056
15 15
SMALL
MULLIKEN_CHARGES


@<TRIPOS>ATOM
    1   C1         1.016133736    -0.804961787     0.384467636     C.3   1  noname   -0.127265
    2   C2         1.289939522     0.345097384    -0.572400441     C.3   1  noname   -0.052804
    3   O3         0.467364589     1.488073329    -0.300431572     O.3   1  noname   -0.242040
    4   C4        -0.839311605     1.151576018     0.191426506     C.3   1  noname   -0.014612
    5   C5        -1.275757455    -0.233778028    -0.271987545     C.3   1  noname   -0.165193
    6   N6        -0.358858582    -1.295457763     0.177645290     N.3   1  noname   -0.265036
    7   H7         1.200234778    -0.443933114     1.416536592       H   1  noname    0.086979
    8   H8         1.734754410    -1.619708692     0.190822291       H   1  noname    0.103949
    9   H9         2.331797143     0.685229151    -0.479677508       H   1  noname    0.108800
   10   H10        1.137727294     0.001544537    -1.614625672       H   1  noname    0.079392
   11   H11       -1.525845865     1.929636255    -0.180137770       H   1  noname    0.101573
   12   H12       -0.846140590     1.197288143     1.299429892       H   1  noname    0.061182
   13   H13       -1.333421845    -0.237397657    -1.374894146       H   1  noname    0.095812
   14   H14       -2.290271006    -0.448465137     0.095411987       H   1  noname    0.115478
   15   H15       -0.708344525    -1.714742639     1.038414459       H   1  noname    0.188243


@<TRIPOS>BOND
    1      1      2    1
    2      2      3    1
    3      3      4    1
    4      4      5    1
    5      5      6    1
    6      6      1    1
    7      1      7    1
    8      1      8    1
    9      2      9    1
   10      2     10    1
   11      4     11    1
   12      4     12    1
   13      5     13    1
   14      5     14    1
   15      6     15    1
#
#	File Created by: Spartan'20 Export
#

@<TRIPOS>MOLECULE
M0057
14 14
SMALL
MULLIKEN_CHARGES


@<TRIPOS>ATOM
    1   C1         0.358201633     1.139001422    -0.669861390     C.3   1  noname   -0.050786
    2   C2        -0.358139360     1.138960844     0.669883107     C.3   1  noname   -0.050811
    3   O3         0.000218822     0.000091432     1.465539293     O.3   1  noname   -0.240211
    4   C4         0.358172138    -1.138922438     0.669900243     C.3   1  noname   -0.050798
    5   C5        -0.358184199    -1.138899251    -0.669856062     C.3   1  noname   -0.050865
    6   O6        -0.000024712     0.000050542    -1.465478516     O.3   1  noname   -0.240213
    7   H7         0.085424036     2.035089984    -1.249297103       H   1  noname    0.109237
    8   H8         1.453436255     1.160224920    -0.505461928       H   1  noname    0.081362
    9   H9        -1.453359247     1.159990854     0.505370860       H   1  noname    0.081365
   10   H10       -0.085583406     2.035117008     1.249296946       H   1  noname    0.109250
   11   H11        1.453381862    -1.160417715     0.505384398       H   1  noname    0.081366
   12   H12        0.085302399    -2.034996032     1.249328574       H   1  noname    0.109233
   13   H13       -0.085425736    -2.035012861    -1.249288052       H   1  noname    0.109245
   14   H14       -1.453420486    -1.160278710    -0.505460373       H   1  noname    0.081379


@<TRIPOS>BOND
    1      1      2    1
    2      2      3    1
    3      3      4    1
    4      4      5    1
    5      5      6    1
    6      6      1    1
    7      1      7    1
    8      1      8    1
    9      2      9    1
   10      2     10    1
   11      4     11    1
   12      4     12    1
   13      5     13    1
   14      5     14    1
#
#	File Created by: Spartan'20 Export
#

@<TRIPOS>MOLECULE
M0058
11 11
SMALL
MULLIKEN_CHARGES


@<TRIPOS>ATOM
    1   C1         0.735275801    -0.194505027    -0.782888980     C.3   1  noname   -0.040614
    2   C2        -0.735270690     0.194548316    -0.782926458     C.3   1  noname   -0.040600
    3   O3        -1.141307827    -0.178567306     0.539015491     O.3   1  noname   -0.248900
    4   C4         0.000022545     0.000003967     1.373825041     C.3   1  noname    0.098302
    5   O5         1.141314293     0.178780379     0.539007086     O.3   1  noname   -0.248894
    6   H6         1.353168716     0.363932118    -1.499082571       H   1  noname    0.107892
    7   H7         0.861000876    -1.281269745    -0.949423471       H   1  noname    0.082484
    8   H8        -1.353142430    -0.364037387    -1.499035950       H   1  noname    0.107878
    9   H9        -0.861085371     1.281279878    -0.949638402       H   1  noname    0.082486
   10   H10       -0.094641431     0.903505564     2.005689432       H   1  noname    0.086103
   11   H11        0.094665517    -0.903670757     2.005458781       H   1  noname    0.086081


@<TRIPOS>BOND
    1      1      2    1
    2      2      3    1
    3      3      4    1
    4      4      5    1
    5      5      1    1
    6      1      6    1
    7      1      7    1
    8      2      8    1
    9      2      9    1
   10      4     10    1
   11      4     11    1
#
#	File Created by: Spartan'20 Export
#

@<TRIPOS>MOLECULE
M0059
14 14
SMALL
MULLIKEN_CHARGES


@<TRIPOS>ATOM
    1   C1         0.000005775     0.000010458    -1.277885455     C.3   1  noname   -0.124427
    2   C2        -1.208665312    -0.289148463    -0.369672007     C.3   1  noname   -0.070516
    3   O3        -1.087330110     0.472791887     0.839883839     O.3   1  noname   -0.250563
    4   C4        -0.000009613     0.000013743     1.620306624     C.3   1  noname    0.096808
    5   O5         1.087412822    -0.472659171     0.839940857     O.3   1  noname   -0.250568
    6   C6         1.208722678     0.289143514    -0.369712030     C.3   1  noname   -0.070499
    7   H7         0.191743065    -0.867731228    -1.928172312       H   1  noname    0.088261
    8   H8        -0.191789220     0.867799842    -1.928101425       H   1  noname    0.088267
    9   H9        -2.157138779     0.016003468    -0.830559447       H   1  noname    0.112211
   10   H10       -1.271175453    -1.368488167    -0.133248747       H   1  noname    0.091181
   11   H11       -0.301599779    -0.859111836     2.250525749       H   1  noname    0.083781
   12   H12        0.301439950     0.859038140     2.250714745       H   1  noname    0.083785
   13   H13        1.271248275     1.368498194    -0.133411891       H   1  noname    0.091180
   14   H14        2.157135702    -0.016160384    -0.830608501       H   1  noname    0.112207


@<TRIPOS>BOND
    1      1      2    1
    2      2      3    1
    3      3      4    1
    4      4      5    1
    5      5      6    1
    6      6      1    1
    7      1      7    1
    8      1      8    1
    9      2      9    1
   10      2     10    1
   11      4     11    1
   12      4     12    1
   13      6     13    1
   14      6     14    1
#
#	File Created by: Spartan'20 Export
#

@<TRIPOS>MOLECULE
M0060
10 10
SMALL
MULLIKEN_CHARGES


@<TRIPOS>ATOM
    1   C1        -0.422016963     0.823355695     0.109810670     C.3   1  noname   -0.094805
    2   C2        -0.811077019    -0.646256411     0.045174584     C.3   1  noname   -0.046212
    3   O3         0.419442228    -1.369303969    -0.180037943     O.3   1  noname   -0.223168
    4   S4         1.670249926    -0.358332185    -0.682651708       S   1  noname    0.625094
    5   O5         2.527837500    -0.147127362     0.480504359     O.2   1  noname   -0.335735
    6   O6         0.638602935     0.943284756    -0.870337996     O.3   1  noname   -0.216841
    7   H7        -1.228198963     1.499472978    -0.200453786       H   1  noname    0.128721
    8   H8        -0.046421928     1.110876520     1.104445356       H   1  noname    0.129300
    9   H9        -1.496939128    -0.850306280    -0.792532056       H   1  noname    0.110008
   10   H10       -1.251478586    -1.005663742     0.986078520       H   1  noname    0.115878


@<TRIPOS>BOND
    1      1      2    1
    2      2      3    1
    3      3      4    1
    4      4      5    2
    5      4      6    1
    6      6      1    1
    7      1      7    1
    8      1      8    1
    9      2      9    1
   10      2     10    1
#
#	File Created by: Spartan'20 Export
#

@<TRIPOS>MOLECULE
M0061
7 7
SMALL
MULLIKEN_CHARGES


@<TRIPOS>ATOM
    1   C1        -0.743540156     0.000001865    -0.077031881     C.3   1  noname   -0.181235
    2   C2         0.743543207     0.000000339    -0.077028711     C.3   1  noname   -0.181236
    3   S3        -0.000006486    -0.000001252     1.586775246     S.3   1  noname   -0.123039
    4   H4        -1.259664540     0.920272793    -0.358174219       H   1  noname    0.134157
    5   H5        -1.259656963    -0.920270455    -0.358177852       H   1  noname    0.134156
    6   H6         1.259661787     0.920268909    -0.358184015       H   1  noname    0.134156
    7   H7         1.259663152    -0.920272199    -0.358178567       H   1  noname    0.134156


@<TRIPOS>BOND
    1      1      2    1
    2      2      3    1
    3      3      1    1
    4      1      4    1
    5      1      5    1
    6      2      6    1
    7      2      7    1
#
#	File Created by: Spartan'20 Export
#

@<TRIPOS>MOLECULE
M0062
10 10
SMALL
MULLIKEN_CHARGES


@<TRIPOS>ATOM
    1   C1         0.691537900     0.319204623    -0.818392700     C.3   1  noname   -0.193680
    2   C2        -0.691532689    -0.319220286    -0.818504188     C.3   1  noname   -0.193665
    3   S3        -1.468597215     0.046502272     0.792145995     S.3   1  noname    0.050000
    4   C4        -0.000015651    -0.000067828     1.757583027     C.2   1  noname    0.084975
    5   S5         0.000143825     0.000553479     3.396281994     S.2   1  noname   -0.235544
    6   S6         1.468472255    -0.047236190     0.792097352     S.3   1  noname    0.049994
    7   H7         1.330594357    -0.096428059    -1.610824868       H   1  noname    0.138490
    8   H8         0.630840167     1.410626324    -0.939510289       H   1  noname    0.138599
    9   H9        -0.630871533    -1.410595398    -0.940044183       H   1  noname    0.138595
   10   H10       -1.330571417     0.096661063    -1.610832140       H   1  noname    0.138484


@<TRIPOS>BOND
    1      1      2    1
    2      2      3    1
    3      3      4    1
    4      4      5    2
    5      4      6    1
    6      6      1    1
    7      1      7    1
    8      1      8    1
    9      2      9    1
   10      2     10    1
#
#	File Created by: Spartan'20 Export
#

@<TRIPOS>MOLECULE
M0063
10 10
SMALL
MULLIKEN_CHARGES


@<TRIPOS>ATOM
    1   C1        -0.274803945     0.000005892     0.677835434     C.3   1  noname   -0.155157
    2   C2         0.115926950    -1.148855206    -0.274662807     C.3   1  noname   -0.177677
    3   S3         0.082321519     0.000000453    -1.726592688     S.3   1  noname   -0.106020
    4   C4         0.115917445     1.148881521    -0.274663548     C.3   1  noname   -0.177670
    5   H5         0.232722121    -0.000009680     1.654558965       H   1  noname    0.103778
    6   H6        -1.359746163    -0.000010065     0.851093204       H   1  noname    0.100165
    7   H7        -0.587494355    -1.987460154    -0.348677514       H   1  noname    0.120283
    8   H8         1.131328569    -1.534910088    -0.105098343       H   1  noname    0.114789
    9   H9        -0.587505329     1.987476473    -0.348684089       H   1  noname    0.120286
   10   H10        1.131333187     1.534880852    -0.105108612       H   1  noname    0.114790


@<TRIPOS>BOND
    1      1      2    1
    2      2      3    1
    3      3      4    1
    4      4      1    1
    5      1      5    1
    6      1      6    1
    7      2      7    1
    8      2      8    1
    9      4      9    1
   10      4     10    1
#
#	File Created by: Spartan'20 Export
#

@<TRIPOS>MOLECULE
M0064
15 15
SMALL
MULLIKEN_CHARGES


@<TRIPOS>ATOM
    1   C1         0.828945267    -0.784484438    -0.671032774     C.3   1  noname   -0.170708
    2   C2         1.520864585     0.464965894    -0.118702946     C.3   1  noname   -0.138331
    3   S3         0.394108539     1.912506967    -0.187229939     S.3   1  noname   -0.113889
    4   C4        -1.206331193     1.019051035    -0.145019099     C.3   1  noname   -0.186922
    5   C5        -1.145376811    -0.223770777     0.732739216     C.3   1  noname   -0.119156
    6   N6        -0.313410518    -1.269066102     0.111285117     N.3   1  noname   -0.269950
    7   H7         0.502902129    -0.573447484    -1.703351130       H   1  noname    0.101497
    8   H8         1.555411099    -1.609362743    -0.739306225       H   1  noname    0.117145
    9   H9         2.401556805     0.723523134    -0.724855115       H   1  noname    0.122912
   10   H10        1.855864674     0.298657347     0.917385943       H   1  noname    0.101715
   11   H11       -1.932071487     1.737252531     0.259901377       H   1  noname    0.130693
   12   H12       -1.525195007     0.755512860    -1.164874256       H   1  noname    0.121791
   13   H13       -2.165817571    -0.624796879     0.865429132       H   1  noname    0.104743
   14   H14       -0.784563711     0.084760519     1.734927113       H   1  noname    0.090516
   15   H15        0.013113199    -1.911301865     0.832703585       H   1  noname    0.188565


@<TRIPOS>BOND
    1      1      2    1
    2      2      3    1
    3      3      4    1
    4      4      5    1
    5      5      6    1
    6      6      1    1
    7      1      7    1
    8      1      8    1
    9      2      9    1
   10      2     10    1
   11      4     11    1
   12      4     12    1
   13      5     13    1
   14      5     14    1
   15      6     15    1
#
#	File Created by: Spartan'20 Export
#

@<TRIPOS>MOLECULE
M0065
14 14
SMALL
MULLIKEN_CHARGES


@<TRIPOS>ATOM
    1   C1         0.680345883     1.393556262     0.343072600     C.3   1  noname   -0.171275
    2   C2        -0.680283338     1.393441970    -0.342994327     C.3   1  noname   -0.171321
    3   S3        -1.750309003     0.000039707     0.149211083     S.3   1  noname   -0.096964
    4   C4        -0.680356788    -1.393405904    -0.342935944     C.3   1  noname   -0.171334
    5   C5         0.680362525    -1.393477152     0.342936547     C.3   1  noname   -0.171289
    6   S6         1.750356677     0.000055304    -0.148919350     S.3   1  noname   -0.096964
    7   H7         1.250231850     2.292216199     0.058209240       H   1  noname    0.126473
    8   H8         0.561113447     1.396130271     1.437502601       H   1  noname    0.116513
    9   H9        -0.561084877     1.395682916    -1.437422274       H   1  noname    0.116516
   10   H10       -1.250269662     2.292128938    -0.058441820       H   1  noname    0.126483
   11   H11       -0.561334815    -1.395955039    -1.437381669       H   1  noname    0.116519
   12   H12       -1.250255804    -2.292046567    -0.058062151       H   1  noname    0.126476
   13   H13        1.250238499    -2.292072700     0.057856527       H   1  noname    0.126470
   14   H14        0.561245405    -1.396294204     1.437368936       H   1  noname    0.116516


@<TRIPOS>BOND
    1      1      2    1
    2      2      3    1
    3      3      4    1
    4      4      5    1
    5      5      6    1
    6      6      1    1
    7      1      7    1
    8      1      8    1
    9      2      9    1
   10      2     10    1
   11      4     11    1
   12      4     12    1
   13      5     13    1
   14      5     14    1
#
#	File Created by: Spartan'20 Export
#

@<TRIPOS>MOLECULE
M0066
12 12
SMALL
MULLIKEN_CHARGES


@<TRIPOS>ATOM
    1   C1        -0.670160380    -0.609734194    -0.405016127     C.3   1  noname   -0.130630
    2   C2        -1.218069044     0.638943803     0.281333563     C.3   1  noname   -0.141780
    3   S3         0.203401331     1.315851981     1.232750624     S.3   1  noname   -0.120303
    4   C4         1.400601917     0.228632408     0.347137007     C.3   1  noname   -0.111669
    5   N5         0.678538965    -0.236154796    -0.829947057     N.3   1  noname   -0.275074
    6   H6        -1.275308231    -0.885798969    -1.282441525       H   1  noname    0.111987
    7   H7        -0.686912655    -1.458950585     0.312397458       H   1  noname    0.087225
    8   H8        -2.040517792     0.408560862     0.970952023       H   1  noname    0.113358
    9   H9        -1.550027055     1.384200682    -0.453800472       H   1  noname    0.116536
   10   H10        1.706706240    -0.580366212     1.039738737       H   1  noname    0.101205
   11   H11        2.284592148     0.814306911     0.057526783       H   1  noname    0.130396
   12   H12        1.167154554    -1.019491890    -1.270631014       H   1  noname    0.190894


@<TRIPOS>BOND
    1      1      2    1
    2      2      3    1
    3      3      4    1
    4      4      5    1
    5      5      1    1
    6      1      6    1
    7      1      7    1
    8      2      8    1
    9      2      9    1
   10      4     10    1
   11      4     11    1
   12      5     12    1
#
#	File Created by: Spartan'20 Export
#

@<TRIPOS>MOLECULE
M0067
11 11
SMALL
MULLIKEN_CHARGES


@<TRIPOS>ATOM
    1   C1        -0.684904727     0.330750998    -0.947800364     C.3   1  noname   -0.168157
    2   C2         0.685028506    -0.330963824    -0.948427687     C.3   1  noname   -0.167850
    3   S3         1.500334154     0.111739560     0.619465569     S.3   1  noname   -0.088339
    4   C4        -0.000119741     0.000096315     1.665493991     C.3   1  noname   -0.189329
    5   S5        -1.499872739    -0.115346604     0.619189724     S.3   1  noname   -0.088136
    6   H6        -0.597572874     1.422128494    -1.046640235       H   1  noname    0.126693
    7   H7        -1.326283924    -0.054993693    -1.755166346       H   1  noname    0.125062
    8   H8         1.326385802     0.056286061    -1.755097229       H   1  noname    0.124982
    9   H9         0.597574126    -1.422124118    -1.049471852       H   1  noname    0.126691
   10   H10       -0.027058696     0.897818380     2.297642870       H   1  noname    0.141075
   11   H11        0.026490113    -0.895391568     2.300811560       H   1  noname    0.141148


@<TRIPOS>BOND
    1      1      2    1
    2      2      3    1
    3      3      4    1
    4      4      5    1
    5      5      1    1
    6      1      6    1
    7      1      7    1
    8      2      8    1
    9      2      9    1
   10      4     10    1
   11      4     11    1
#
#	File Created by: Spartan'20 Export
#

@<TRIPOS>MOLECULE
M0068
14 14
SMALL
MULLIKEN_CHARGES


@<TRIPOS>ATOM
    1   C1        -0.000054324     0.000145668    -1.366925620     C.3   1  noname   -0.129231
    2   C2         1.112620436     0.641173977    -0.525352433     C.3   1  noname   -0.192727
    3   S3         1.514068320    -0.329073448     0.966259937     S.3   1  noname   -0.101006
    4   C4         0.000010256     0.000109737     1.949206224     C.3   1  noname   -0.199748
    5   S5        -1.514417448     0.328236660     0.966290824     S.3   1  noname   -0.101098
    6   C6        -1.112511695    -0.641479528    -0.525542859     C.3   1  noname   -0.192733
    7   H7         0.428899283    -0.777748398    -2.019850003       H   1  noname    0.095392
    8   H8        -0.429205602     0.778509441    -2.019167985       H   1  noname    0.095388
    9   H9         0.837272660     1.656033466    -0.208464462       H   1  noname    0.135118
   10   H10        2.051395033     0.712545889    -1.091795801       H   1  noname    0.131829
   11   H11       -0.137917896    -0.883465928     2.588651184       H   1  noname    0.142234
   12   H12        0.138089447     0.884378684     2.587653426       H   1  noname    0.142217
   13   H13       -0.836961992    -1.656380081    -0.208966480       H   1  noname    0.135141
   14   H14       -2.051286479    -0.712986139    -1.091995953       H   1  noname    0.131822


@<TRIPOS>BOND
    1      1      2    1
    2      2      3    1
    3      3      4    1
    4      4      5    1
    5      5      6    1
    6      6      1    1
    7      1      7    1
    8      1      8    1
    9      2      9    1
   10      2     10    1
   11      4     11    1
   12      4     12    1
   13      6     13    1
   14      6     14    1
#
#	File Created by: Spartan'20 Export
#

@<TRIPOS>MOLECULE
M0069
22 24
SMALL
MULLIKEN_CHARGES


@<TRIPOS>ATOM
    1   C1        -1.378122851     0.000014282     0.971099730     C.3   1  noname   -0.157000
    2   N2        -0.001166687     0.000023353     1.507625669     N.3   1  noname   -0.069110
    3   C3         0.688878395     1.191799324     0.974813736     C.3   1  noname   -0.155286
    4   N4         0.709877884     1.227760575    -0.500625433     N.3   1  noname   -0.070243
    5   C5        -0.688385571     1.192746741    -0.973992295     C.3   1  noname   -0.154927
    6   N6        -1.420043326     0.000004044    -0.503559597     N.3   1  noname   -0.069726
    7   C7        -0.688385867    -1.192736492    -0.973999333     C.3   1  noname   -0.154952
    8   N8         0.709868434    -1.227694047    -0.500641973     N.3   1  noname   -0.070239
    9   C9         0.688847645    -1.191761877     0.974789471     C.3   1  noname   -0.155317
   10   C10        1.377876531     0.000025619    -0.973712799     C.3   1  noname   -0.154213
   11   H11       -1.903937080    -0.893598892     1.343640033       H   1  noname    0.113163
   12   H12       -1.903979425     0.893599947     1.343636102       H   1  noname    0.113165
   13   H13        1.726713464     1.200481221     1.343655660       H   1  noname    0.112691
   14   H14        0.177452428     2.094659139     1.344856225       H   1  noname    0.112632
   15   H15       -0.694533073     1.203253131    -2.075424353       H   1  noname    0.112948
   16   H16       -1.207966104     2.094169369    -0.612110977       H   1  noname    0.112683
   17   H17       -1.207889407    -2.094198558    -0.612077097       H   1  noname    0.112685
   18   H18       -0.694552914    -1.203345080    -2.075435656       H   1  noname    0.112954
   19   H19        1.726673677    -1.200541950     1.343643855       H   1  noname    0.112695
   20   H20        0.177399550    -2.094642781     1.344774906       H   1  noname    0.112635
   21   H21        1.385720738    -0.000003457    -2.075560691       H   1  noname    0.112456
   22   H22        2.419653557    -0.000013612    -0.615364668       H   1  noname    0.112659


@<TRIPOS>BOND
    1      1      2    1
    2      2      3    1
    3      3      4    1
    4      4      5    1
    5      5      6    1
    6      6      7    1
    7      7      8    1
    8      8      9    1
    9      8     10    1
   10      6      1    1
   11      9      2    1
   12     10      4    1
   13      1     11    1
   14      1     12    1
   15      3     13    1
   16      3     14    1
   17      5     15    1
   18      5     16    1
   19      7     17    1
   20      7     18    1
   21      9     19    1
   22      9     20    1
   23     10     21    1
   24     10     22    1
#
#	File Created by: Spartan'20 Export
#

@<TRIPOS>MOLECULE
M0070
12 12
SMALL
MULLIKEN_CHARGES


@<TRIPOS>ATOM
    1   C1        -1.130006255     0.293100222     0.685387050     C.3   1  noname    0.066051
    2   O2         0.000082684     0.000268537     1.503542455     O.3   1  noname   -0.236979
    3   C3         1.130030561    -0.293088630     0.685406239     C.3   1  noname    0.065985
    4   O4         1.087200757     0.447363272    -0.522392542     O.3   1  noname   -0.241110
    5   C5         0.000042631     0.000009096    -1.325223824     C.3   1  noname    0.073795
    6   O6        -1.086954937    -0.447506730    -0.522298153     O.3   1  noname   -0.241117
    7   H7        -1.165174795     1.379899046     0.467663967       H   1  noname    0.082082
    8   H8        -2.028495796    -0.019644110     1.232756063       H   1  noname    0.119991
    9   H9         1.164765592    -1.379919513     0.467829180       H   1  noname    0.082104
   10   H10        2.028598976     0.019395785     1.232765709       H   1  noname    0.120008
   11   H11       -0.283421773     0.865145029    -1.952605742       H   1  noname    0.101261
   12   H12        0.283332354    -0.865022005    -1.952830400       H   1  noname    0.101263


@<TRIPOS>BOND
    1      1      2    1
    2      2      3    1
    3      3      4    1
    4      4      5    1
    5      5      6    1
    6      6      1    1
    7      1      7    1
    8      1      8    1
    9      3      9    1
   10      3     10    1
   11      5     11    1
   12      5     12    1
#
#	File Created by: Spartan'20 Export
#

@<TRIPOS>MOLECULE
M0071
26 28
SMALL
MULLIKEN_CHARGES


@<TRIPOS>ATOM
    1   C1         0.380195994     1.254886654    -1.216075533     C.3   1  noname   -0.262882
    2   C2        -0.468051113     0.000077347    -1.482310219     C.3   1  noname    0.101029
    3   C3         0.380130336    -1.254762649    -1.216079099     C.3   1  noname   -0.262953
    4   C4         0.851413261    -1.258577083     0.250389452     C.3   1  noname    0.090033
    5   C5         1.685478470     0.000024017     0.541210194     C.3   1  noname   -0.250191
    6   C6         0.851443542     1.258668933     0.250404620     C.3   1  noname    0.090007
    7   C7        -0.390689858     1.271300576     1.144012984     C.3   1  noname    0.020464
    8   C8        -1.217018328     0.000019931     0.925211656     C.3   1  noname    0.116913
    9   C9        -1.691905944    -0.000039191    -0.546073620     C.3   1  noname   -0.287348
   10   C10       -0.390696353    -1.271250089     1.144019461     C.3   1  noname    0.020412
   11   F11       -0.012327734    -1.402356436     2.493111874       F   1  noname   -0.193705
   12   F12       -0.012338598     1.402361189     2.493108195       F   1  noname   -0.193700
   13   H13       -0.204544148     2.163790933    -1.437599601       H   1  noname    0.095678
   14   H14        1.257020900     1.264407261    -1.884151983       H   1  noname    0.090901
   15   H15       -0.811669571     0.000028003    -2.529907449       H   1  noname    0.063636
   16   H16       -0.204755321    -2.163603054    -1.437523377       H   1  noname    0.095679
   17   H17        1.256894569    -1.264539341    -1.884228127       H   1  noname    0.090920
   18   H18        1.443200755    -2.164736633     0.458275763       H   1  noname    0.066267
   19   H19        2.585010948    -0.000069851    -0.095769495       H   1  noname    0.086791
   20   H20        2.020684281    -0.000061947     1.587915496       H   1  noname    0.115739
   21   H21        1.443251752     2.164793204     0.458308971       H   1  noname    0.066272
   22   H22       -1.016302510     2.155427916     0.919349739       H   1  noname    0.060980
   23   H23       -2.075104411    -0.000029336     1.615972906       H   1  noname    0.072043
   24   H24       -2.321669045     0.885017516    -0.735494107       H   1  noname    0.099898
   25   H25       -2.321361598    -0.885356132    -0.735441033       H   1  noname    0.099894
   26   H26       -1.016290277    -2.155421737     0.919362331       H   1  noname    0.060988


@<TRIPOS>BOND
    1      1      2    1
    2      2      3    1
    3      3      4    1
    4      4      5    1
    5      5      6    1
    6      6      7    1
    7      7      8    1
    8      8      9    1
    9      8     10    1
   10     10     11    1
   11      7     12    1
   12      6      1    1
   13      9      2    1
   14     10      4    1
   15      1     13    1
   16      1     14    1
   17      2     15    1
   18      3     16    1
   19      3     17    1
   20      4     18    1
   21      5     19    1
   22      5     20    1
   23      6     21    1
   24      7     22    1
   25      8     23    1
   26      9     24    1
   27      9     25    1
   28     10     26    1
#
#	File Created by: Spartan'20 Export
#

@<TRIPOS>MOLECULE
M0072
7 6
SMALL
MULLIKEN_CHARGES


@<TRIPOS>ATOM
    1   C1        -0.393708072     0.000000000    -0.983148889     C.2   1  noname   -0.206262
    2   C2         0.483307327     0.000000000     0.032363814     C.2   1  noname   -0.002232
    3   C3         0.085958172     0.000000000     1.401189696     C.1   1  noname   -0.222247
    4   N4        -0.220547661     0.000000000     2.526760984     N.1   1  noname    0.051086
    5   H5        -0.045907423     0.000000000    -2.016348754       H   1  noname    0.140590
    6   H6        -1.470178560     0.000000000    -0.808444188       H   1  noname    0.146336
    7   H7         1.561076217     0.000000000    -0.152372663       H   1  noname    0.145661


@<TRIPOS>BOND
    1      1      2    2
    2      2      3    1
    3      3      4    3
    4      1      5    1
    5      1      6    1
    6      2      7    1
#
#	File Created by: Spartan'20 Export
#

@<TRIPOS>MOLECULE
M0073
11 10
SMALL
MULLIKEN_CHARGES


@<TRIPOS>ATOM
    1   C1        -1.489283188     0.873129720    -0.404503708     C.2   1  noname   -0.265926
    2   C2        -0.465231138     0.493229723     0.366522669     C.2   1  noname   -0.128329
    3   C3         0.265476461    -0.814773143     0.235191291     C.3   1  noname   -0.055306
    4   N4         1.682375255    -0.685112451    -0.151720604     N.3   1  noname   -0.453115
    5   H5        -1.889850402     0.209566797    -1.176139704       H   1  noname    0.108996
    6   H6        -1.967091055     1.848234369    -0.296165835       H   1  noname    0.116882
    7   H7        -0.080873627     1.181158062     1.130427319       H   1  noname    0.092588
    8   H8        -0.241394335    -1.447803214    -0.511740996       H   1  noname    0.100406
    9   H9         0.233128928    -1.368557421     1.188563229       H   1  noname    0.111091
   10   H10        2.204754140    -0.213331045     0.591097631       H   1  noname    0.204441
   11   H11        1.747988960    -0.075741396    -0.971531293       H   1  noname    0.207292


@<TRIPOS>BOND
    1      1      2    2
    2      2      3    1
    3      3      4    1
    4      1      5    1
    5      1      6    1
    6      2      7    1
    7      3      8    1
    8      3      9    1
    9      4     10    1
   10      4     11    1
#
#	File Created by: Spartan'20 Export
#

@<TRIPOS>MOLECULE
M0074
25 24
SMALL
MULLIKEN_CHARGES


@<TRIPOS>ATOM
    1   C1         1.883559241    -1.115086974     2.127933919     C.2   1  noname   -0.223122
    2   C2         1.023550319    -1.270888424     1.119110494     C.2   1  noname   -0.153137
    3   C3        -0.145408459    -0.367758979     0.843801788     C.3   1  noname   -0.039519
    4   N4        -0.265983660     0.029916390    -0.567030035     N.3   1  noname   -0.112488
    5   C5        -1.664512675     0.235577298    -0.961055591     C.3   1  noname   -0.053552
    6   C6        -2.453374214    -1.040284627    -0.954245869     C.2   1  noname   -0.132060
    7   C7        -3.623170522    -1.208604285    -0.331328506     C.2   1  noname   -0.230019
    8   C8         0.545903455     1.201750037    -0.906741434     C.3   1  noname   -0.138787
    9   C9         2.026720665     0.988629440    -0.792368174     C.2   1  noname   -0.034134
   10   C10        2.872895753     1.865949964    -0.247789439     C.2   1  noname   -0.258109
   11   H11        1.817519116    -0.252893030     2.796079136       H   1  noname    0.100064
   12   H12        2.687197043    -1.828307276     2.315554977       H   1  noname    0.113635
   13   H13        1.115640975    -2.125502284     0.440706909       H   1  noname    0.092728
   14   H14       -1.063205794    -0.925763293     1.096709328       H   1  noname    0.129443
   15   H15       -0.114035766     0.514128201     1.520834418       H   1  noname    0.067138
   16   H16       -1.651780773     0.634539293    -1.990870454       H   1  noname    0.109004
   17   H17       -2.179003476     0.998974433    -0.333153535       H   1  noname    0.064666
   18   H18       -2.007569637    -1.866665135    -1.518492758       H   1  noname    0.096101
   19   H19       -4.077986360    -0.402018113     0.249783230       H   1  noname    0.110352
   20   H20       -4.170869169    -2.150799716    -0.382700530       H   1  noname    0.119555
   21   H21        0.255919584     2.095783290    -0.306704389       H   1  noname    0.072688
   22   H22        0.317644590     1.445071355    -1.960037874       H   1  noname    0.106416
   23   H23        2.405562419     0.062028337    -1.235328175       H   1  noname    0.089621
   24   H24        2.515282131     2.790718802     0.212405744       H   1  noname    0.105699
   25   H25        3.949505214     1.691505294    -0.235073182       H   1  noname    0.113992


@<TRIPOS>BOND
    1      1      2    2
    2      2      3    1
    3      3      4    1
    4      4      5    1
    5      5      6    1
    6      6      7    2
    7      4      8    1
    8      8      9    1
    9      9     10    2
   10      1     11    1
   11      1     12    1
   12      2     13    1
   13      3     14    1
   14      3     15    1
   15      5     16    1
   16      5     17    1
   17      6     18    1
   18      7     19    1
   19      7     20    1
   20      8     21    1
   21      8     22    1
   22      9     23    1
   23     10     24    1
   24     10     25    1
#
#	File Created by: Spartan'20 Export
#

@<TRIPOS>MOLECULE
M0075
18 17
SMALL
MULLIKEN_CHARGES


@<TRIPOS>ATOM
    1   C1         2.000298244     0.802173018    -1.153048167     C.2   1  noname   -0.270137
    2   C2         1.994862181    -0.529956314    -1.066961952     C.2   1  noname   -0.136207
    3   C3         1.257574859    -1.334282552    -0.027073204     C.3   1  noname   -0.029522
    4   N4         0.333330577    -0.544027974     0.778127672     N.3   1  noname   -0.283068
    5   C5        -0.960794817    -0.313654754     0.125537795     C.3   1  noname   -0.089689
    6   C6        -1.888616595     0.467657054     1.006419762     C.2   1  noname   -0.086328
    7   C7        -2.473820282     1.616768475     0.662611938     C.2   1  noname   -0.262996
    8   H8         2.564294863     1.317423237    -1.931548375       H   1  noname    0.112802
    9   H9         1.444453862     1.409268935    -0.435402745       H   1  noname    0.137714
   10   H10        2.563903399    -1.124621610    -1.790460385       H   1  noname    0.096371
   11   H11        0.754931072    -2.188438558    -0.539056604       H   1  noname    0.072884
   12   H12        2.002123065    -1.791909361     0.648629772       H   1  noname    0.106720
   13   H13        0.183407644    -1.000461856     1.678609466       H   1  noname    0.176149
   14   H14       -1.451196213    -1.273985699    -0.162257879       H   1  noname    0.089840
   15   H15       -0.784161511     0.238537934    -0.810558380       H   1  noname    0.123615
   16   H16       -2.093192596     0.035637714     1.994279906       H   1  noname    0.091746
   17   H17       -2.289149928     2.076130629    -0.311864434       H   1  noname    0.112118
   18   H18       -3.158247825     2.137741680     1.334015813       H   1  noname    0.116372


@<TRIPOS>BOND
    1      1      2    2
    2      2      3    1
    3      3      4    1
    4      4      5    1
    5      5      6    1
    6      6      7    2
    7      1      8    1
    8      1      9    1
    9      2     10    1
   10      3     11    1
   11      3     12    1
   12      4     13    1
   13      5     14    1
   14      5     15    1
   15      6     16    1
   16      7     17    1
   17      7     18    1
#
#	File Created by: Spartan'20 Export
#

@<TRIPOS>MOLECULE
M0076
10 9
SMALL
MULLIKEN_CHARGES


@<TRIPOS>ATOM
    1   C1         1.521434186     0.299136555    -0.208116031     C.2   1  noname   -0.242158
    2   C2         0.462458309    -0.240900888     0.402883024     C.2   1  noname   -0.152721
    3   C3        -0.880641442    -0.419422272    -0.237184522     C.3   1  noname    0.018875
    4   O4        -1.917253546     0.254580320     0.492501013     O.3   1  noname   -0.402853
    5   H5         2.480061132     0.421066063     0.298901265       H   1  noname    0.121254
    6   H6         1.467230182     0.629921796    -1.249263509       H   1  noname    0.113906
    7   H7         0.532769249    -0.560264072     1.448740848       H   1  noname    0.106612
    8   H8        -1.175290193    -1.481144442    -0.230634408       H   1  noname    0.104756
    9   H9        -0.846677208    -0.087952018    -1.293336321       H   1  noname    0.083710
   10   H10       -1.644090669     1.184978958     0.575508641       H   1  noname    0.289682


@<TRIPOS>BOND
    1      1      2    2
    2      2      3    1
    3      3      4    1
    4      1      5    1
    5      1      6    1
    6      2      7    1
    7      3      8    1
    8      3      9    1
    9      4     10    1
#
#	File Created by: Spartan'20 Export
#

@<TRIPOS>MOLECULE
M0077
17 16
SMALL
MULLIKEN_CHARGES


@<TRIPOS>ATOM
    1   C1         2.767659647    -0.864450477    -0.574046537     C.2   1  noname   -0.228805
    2   C2         2.142027017    -0.107249731     0.330993283     C.2   1  noname   -0.137186
    3   C3         1.269714228     1.069032942    -0.001812086     C.3   1  noname    0.001502
    4   O4        -0.042625251     0.971558733     0.558567376     O.3   1  noname   -0.230425
    5   C5        -0.835007760    -0.047605631    -0.060217117     C.3   1  noname   -0.035269
    6   C6        -2.140340606    -0.144171718     0.660029127     C.2   1  noname   -0.075810
    7   C7        -3.334288090    -0.098126414     0.065033922     C.2   1  noname   -0.252148
    8   H8         3.405781961    -1.701344454    -0.285104471       H   1  noname    0.120579
    9   H9         2.670205636    -0.663920697    -1.644832946       H   1  noname    0.112282
   10   H10        2.244169086    -0.328880531     1.399325356       H   1  noname    0.103204
   11   H11        1.217545287     1.206745307    -1.100989439       H   1  noname    0.074909
   12   H12        1.690958180     1.989240424     0.435066989       H   1  noname    0.114383
   13   H13       -0.305850736    -1.021466511    -0.008113555       H   1  noname    0.109816
   14   H14       -0.993554238     0.184584054    -1.133052888       H   1  noname    0.075772
   15   H15       -2.067854346    -0.281582499     1.743971718       H   1  noname    0.100481
   16   H16       -4.261032332    -0.213019415     0.629215036       H   1  noname    0.118217
   17   H17       -3.427507684     0.050656618    -1.014033768       H   1  noname    0.110772


@<TRIPOS>BOND
    1      1      2    2
    2      2      3    1
    3      3      4    1
    4      4      5    1
    5      5      6    1
    6      6      7    2
    7      1      8    1
    8      1      9    1
    9      2     10    1
   10      3     11    1
   11      3     12    1
   12      5     13    1
   13      5     14    1
   14      6     15    1
   15      7     16    1
   16      7     17    1
#
#	File Created by: Spartan'20 Export
#

@<TRIPOS>MOLECULE
M0078
15 15
SMALL
MULLIKEN_CHARGES


@<TRIPOS>ATOM
    1   C1         0.160040789     0.000000000     2.819894353     C.2   1  noname   -0.200609
    2   C2        -0.699397360     0.000000000     1.790166924     C.2   1  noname   -0.157643
    3   C3        -0.367456438     0.000000000     0.358304607     C.2   1  noname    0.229527
    4   C4         0.952519276     0.000000000    -0.131004179     C.2   1  noname   -0.170798
    5   C5         1.171650013     0.000000000    -1.503339154     C.2   1  noname   -0.076787
    6   C6         0.070257279     0.000000000    -2.362790074     C.2   1  noname   -0.075605
    7   C7        -1.204174472     0.000000000    -1.792516035     C.2   1  noname   -0.058538
    8   N8        -1.433328224     0.000000000    -0.474381036     N.2   1  noname   -0.139854
    9   H9         1.243619452     0.000000000     2.685027566       H   1  noname    0.109799
   10   H10       -0.200525314     0.000000000     3.848610704       H   1  noname    0.123965
   11   H11       -1.776713733     0.000000000     1.979442444       H   1  noname    0.101957
   12   H12        1.796478052     0.000000000     0.560137422       H   1  noname    0.090048
   13   H13        2.188641323     0.000000000    -1.900138611       H   1  noname    0.115334
   14   H14        0.192504119     0.000000000    -3.446772012       H   1  noname    0.112039
   15   H15       -2.094114762     0.000000000    -2.430642918       H   1  noname    0.108688


@<TRIPOS>BOND
    1      1      2    2
    2      2      3    1
    3      3      4    2
    4      4      5    1
    5      5      6    2
    6      6      7    1
    7      7      8    2
    8      8      3    1
    9      1      9    1
   10      1     10    1
   11      2     11    1
   12      4     12    1
   13      5     13    1
   14      6     14    1
   15      7     15    1
#
#	File Created by: Spartan'20 Export
#

@<TRIPOS>MOLECULE
M0079
15 15
SMALL
MULLIKEN_CHARGES


@<TRIPOS>ATOM
    1   C1        -0.345626513     0.000000000     2.643809579     C.2   1  noname   -0.215764
    2   C2         0.532451508     0.000000000     1.629530654     C.2   1  noname   -0.166072
    3   C3         0.220826573     0.000000000     0.195807719     C.2   1  noname    0.202393
    4   C4         1.263768174     0.000000000    -0.745099577     C.2   1  noname   -0.100120
    5   C5         0.966364683     0.000000000    -2.108347594     C.2   1  noname   -0.065736
    6   N6        -0.279810008     0.000000000    -2.601195470     N.2   1  noname   -0.134135
    7   C7        -1.277060642     0.000000000    -1.699734761     C.2   1  noname   -0.064317
    8   C8        -1.086243256     0.000000000    -0.321288455     C.2   1  noname   -0.105863
    9   H9        -1.426150367     0.000000000     2.487236088       H   1  noname    0.113421
   10   H10       -0.004223182     0.000000000     3.678967861       H   1  noname    0.126378
   11   H11        1.601758964     0.000000000     1.866827352       H   1  noname    0.103117
   12   H12        2.304289488     0.000000000    -0.411298380       H   1  noname    0.104896
   13   H13        1.775218842     0.000000000    -2.846076709       H   1  noname    0.110207
   14   H14       -2.292031956     0.000000000    -2.109900305       H   1  noname    0.110328
   15   H15       -1.953532309     0.000000000     0.340761997       H   1  noname    0.092031


@<TRIPOS>BOND
    1      1      2    2
    2      2      3    1
    3      3      4    2
    4      4      5    1
    5      5      6    2
    6      6      7    1
    7      7      8    2
    8      8      3    1
    9      1      9    1
   10      1     10    1
   11      2     11    1
   12      4     12    1
   13      5     13    1
   14      7     14    1
   15      8     15    1
#
#	File Created by: Spartan'20 Export
#

@<TRIPOS>MOLECULE
M0080
6 5
SMALL
MULLIKEN_CHARGES


@<TRIPOS>ATOM
    1   C1        -0.000049781     0.000003275    -0.487851941     C.3   1  noname   -0.244376
    2   C2        -0.000092116     0.000003593     0.966384857     C.1   1  noname   -0.246191
    3   N3         0.000209288    -0.000005903     2.128871000     N.1   1  noname    0.044181
    4   H4        -0.515416870    -0.892618041    -0.869272524       H   1  noname    0.160963
    5   H5         1.030768375    -0.000001492    -0.868847768       H   1  noname    0.160920
    6   H6        -0.515418897     0.892618568    -0.869283624       H   1  noname    0.160963


@<TRIPOS>BOND
    1      1      2    1
    2      2      3    3
    3      1      4    1
    4      1      5    1
    5      1      6    1
#
#	File Created by: Spartan'20 Export
#

@<TRIPOS>MOLECULE
M0081
10 9
SMALL
MULLIKEN_CHARGES


@<TRIPOS>ATOM
    1   C1         1.288163890     0.000089390    -0.153953136     C.3   1  noname   -0.320753
    2   C2         0.000016694     0.000010134     0.646834861     C.2   1  noname    0.162941
    3   O3         0.000037173     0.000009920     1.866351991     O.2   1  noname   -0.236600
    4   C4        -1.288143843    -0.000083936    -0.153961597     C.3   1  noname   -0.320787
    5   H5         1.329317763     0.883229063    -0.811247330       H   1  noname    0.123935
    6   H6         1.328976427    -0.882506085    -0.811998693       H   1  noname    0.123906
    7   H7         2.151583189    -0.000380821     0.520646717       H   1  noname    0.133249
    8   H8        -2.151586238     0.000349217     0.520619142       H   1  noname    0.133252
    9   H9        -1.329033465     0.882500432    -0.812020284       H   1  noname    0.123912
   10   H10       -1.329331589    -0.883217315    -0.811271672       H   1  noname    0.123940


@<TRIPOS>BOND
    1      1      2    1
    2      2      3    2
    3      2      4    1
    4      1      5    1
    5      1      6    1
    6      1      7    1
    7      4      8    1
    8      4      9    1
    9      4     10    1
#
#	File Created by: Spartan'20 Export
#

@<TRIPOS>MOLECULE
M0082
9 8
SMALL
MULLIKEN_CHARGES


@<TRIPOS>ATOM
    1   C1         0.538607354     0.000002487    -1.242864083     C.3   1  noname   -0.327621
    2   C2        -0.674224637     0.000015980    -0.343206072     C.2   1  noname    0.105711
    3   O3        -1.823947072     0.000032406    -0.760116568     O.2   1  noname   -0.216581
    4   C4        -0.402218924     0.000002611     1.087452829     C.1   1  noname    0.017601
    5   C5        -0.178833624    -0.000015558     2.280822636     C.1   1  noname   -0.091414
    6   H6         1.162088839     0.883410125    -1.034463285       H   1  noname    0.135965
    7   H7         1.162118939    -0.883365358    -1.034382776       H   1  noname    0.135963
    8   H8         0.220101818    -0.000056247    -2.291642985       H   1  noname    0.138122
    9   H9        -0.003692692    -0.000026446     3.338400304       H   1  noname    0.173960


@<TRIPOS>BOND
    1      1      2    1
    2      2      3    2
    3      2      4    1
    4      4      5    3
    5      1      6    1
    6      1      7    1
    7      1      8    1
    8      5      9    1
#
#	File Created by: Spartan'20 Export
#

@<TRIPOS>MOLECULE
M0083
12 11
SMALL
MULLIKEN_CHARGES


@<TRIPOS>ATOM
    1   C1        -0.551028535     0.000052873    -1.896363372     C.3   1  noname   -0.316136
    2   C2         0.351288225    -0.000059908    -0.694171146     C.2   1  noname    0.156240
    3   O3         1.569392097    -0.000117202    -0.751038662     O.2   1  noname   -0.218933
    4   C4        -0.351201144    -0.000104951     0.694269040     C.2   1  noname    0.156195
    5   O5        -1.569292579    -0.000263114     0.751153970     O.2   1  noname   -0.218935
    6   C6         0.551049153     0.000037989     1.896402024     C.3   1  noname   -0.316028
    7   H7        -1.216408191    -0.876259093    -1.868443214       H   1  noname    0.140930
    8   H8        -1.216204248     0.876518595    -1.868439411       H   1  noname    0.140919
    9   H9         0.049957042    -0.000023488    -2.811802476       H   1  noname    0.137403
   10   H10        1.216199795     0.876499170     1.868273253       H   1  noname    0.140909
   11   H11        1.216297497    -0.876353156     1.868404268       H   1  noname    0.140914
   12   H12       -0.050049112     0.000072285     2.811755726       H   1  noname    0.137392


@<TRIPOS>BOND
    1      1      2    1
    2      2      3    2
    3      2      4    1
    4      4      5    2
    5      4      6    1
    6      1      7    1
    7      1      8    1
    8      1      9    1
    9      6     10    1
   10      6     11    1
   11      6     12    1
#
#	File Created by: Spartan'20 Export
#

@<TRIPOS>MOLECULE
M0084
10 9
SMALL
MULLIKEN_CHARGES


@<TRIPOS>ATOM
    1   C1        -1.337459786    -0.212679298    -0.096452520     C.3   1  noname   -0.370909
    2   C2        -0.091483030     0.606099523    -0.323177757     C.2   1  noname    0.118814
    3   O3        -0.076701381     1.678979523    -0.875062837     O.2   1  noname   -0.175905
    4   C4         1.257999591    -0.021052529     0.204240905     C.3   1  noname    0.197672
    5   Cl5        1.150306123     0.004066050     2.003739022      Cl   1  noname   -0.055592
    6   Cl6        2.656378394     0.911040705    -0.329412337      Cl   1  noname   -0.018640
    7   Cl7        1.390087904    -1.717754657    -0.374886517      Cl   1  noname   -0.054117
    8   H8        -1.497158601    -0.842001002    -0.985510399       H   1  noname    0.153723
    9   H9        -2.191075905     0.467689938     0.003168009       H   1  noname    0.149484
   10   H10       -1.260893307    -0.874388253     0.773354432       H   1  noname    0.148887


@<TRIPOS>BOND
    1      1      2    1
    2      2      3    2
    3      2      4    1
    4      4      5    1
    5      4      6    1
    6      4      7    1
    7      1      8    1
    8      1      9    1
    9      1     10    1
#
#	File Created by: Spartan'20 Export
#

@<TRIPOS>MOLECULE
M0085
10 9
SMALL
MULLIKEN_CHARGES


@<TRIPOS>ATOM
    1   C1        -1.296049772     0.041277998    -0.282883363     C.3   1  noname   -0.366523
    2   C2        -0.140522043    -0.001540534     0.679264085     C.2   1  noname    0.150472
    3   O3        -0.254062234    -0.009676520     1.888628671     O.2   1  noname   -0.204079
    4   C4         1.289462591    -0.047259474     0.097893630     C.3   1  noname    0.069969
    5   Cl5        1.656687747     1.526791719    -0.680321274      Cl   1  noname   -0.082317
    6   Cl6        1.479184731    -1.419389058    -1.038272052      Cl   1  noname   -0.085675
    7   H7        -2.196452184     0.373722948     0.244723419       H   1  noname    0.144007
    8   H8        -1.080379210     0.693505410    -1.139581046       H   1  noname    0.143830
    9   H9        -1.464877573    -0.970827164    -0.681737974       H   1  noname    0.150750
   10   H10        2.007007947    -0.186605326     0.912285904       H   1  noname    0.154913


@<TRIPOS>BOND
    1      1      2    1
    2      2      3    2
    3      2      4    1
    4      4      5    1
    5      4      6    1
    6      1      7    1
    7      1      8    1
    8      1      9    1
    9      4     10    1
#
#	File Created by: Spartan'20 Export
#

@<TRIPOS>MOLECULE
M0086
10 9
SMALL
MULLIKEN_CHARGES


@<TRIPOS>ATOM
    1   C1         0.352078598    -0.000116245     1.278130040     C.3   1  noname   -0.364832
    2   C2        -0.668497328     0.000006831     0.174893031     C.2   1  noname    0.117109
    3   O3        -1.868131283    -0.000056643     0.323626280     O.2   1  noname   -0.179871
    4   C4        -0.071315279     0.000126629    -1.274620240     C.3   1  noname    0.437664
    5   F5        -1.020200993    -0.000387613    -2.215988225       F   1  noname   -0.095243
    6   F6         0.713362663    -1.098193868    -1.454175900       F   1  noname   -0.125152
    7   F7         0.712319914     1.099161620    -1.454344599       F   1  noname   -0.125148
    8   H8         1.003396799     0.882189566     1.186613392       H   1  noname    0.152332
    9   H9         1.002257690    -0.883346585     1.187364021       H   1  noname    0.152346
   10   H10       -0.155270782     0.000616308     2.248502202       H   1  noname    0.146014


@<TRIPOS>BOND
    1      1      2    1
    2      2      3    2
    3      2      4    1
    4      4      5    1
    5      4      6    1
    6      4      7    1
    7      1      8    1
    8      1      9    1
    9      1     10    1
#
#	File Created by: Spartan'20 Export
#

@<TRIPOS>MOLECULE
M0087
10 9
SMALL
MULLIKEN_CHARGES


@<TRIPOS>ATOM
    1   C1        -1.298327599     0.053302167    -0.282460411     C.3   1  noname   -0.335259
    2   C2        -0.060733216     0.493330161     0.447217402     C.2   1  noname    0.154019
    3   O3        -0.046825060     1.384169070     1.277890857     O.2   1  noname   -0.228255
    4   C4         1.283550447    -0.177296192     0.142297359     C.3   1  noname   -0.129720
    5   Cl5        1.232874825    -1.640290574    -0.903533472      Cl   1  noname   -0.134518
    6   H6        -2.137053271     0.701640739    -0.007936060       H   1  noname    0.138760
    7   H7        -1.129982798     0.073706492    -1.370371334       H   1  noname    0.140061
    8   H8        -1.524740753    -0.995704389    -0.036579464       H   1  noname    0.143813
    9   H9         1.923745425     0.562713557    -0.358154181       H   1  noname    0.154640
   10   H10        1.757492001    -0.455571032     1.091629303       H   1  noname    0.156650


@<TRIPOS>BOND
    1      1      2    1
    2      2      3    2
    3      2      4    1
    4      4      5    1
    5      1      6    1
    6      1      7    1
    7      1      8    1
    8      4      9    1
    9      4     10    1
#
#	File Created by: Spartan'20 Export
#

@<TRIPOS>MOLECULE
M0088
9 8
SMALL
MULLIKEN_CHARGES


@<TRIPOS>ATOM
    1   C1        -1.086249980    -0.190519614    -0.128757272     C.3   1  noname   -0.352814
    2   C2         0.209546287     0.316137959     0.483961282     C.2   1  noname    0.254107
    3   O3         0.231577600     0.948362669     1.533824705     O.2   1  noname   -0.306909
    4   N4         1.351155757     0.020733591    -0.212283119    N.am   1  noname   -0.381054
    5   H5        -0.957976644    -0.730678208    -1.076570785       H   1  noname    0.097389
    6   H6        -1.577587474    -0.852240448     0.597316026       H   1  noname    0.139830
    7   H7        -1.752805038     0.666930827    -0.291764635       H   1  noname    0.140033
    8   H8         2.238812634     0.330557240     0.168147818       H   1  noname    0.234508
    9   H9         1.343526858    -0.509284016    -1.073874021       H   1  noname    0.229323


@<TRIPOS>BOND
    1      1      2    1
    2      2      3    2
    3      2      4    am
    4      1      5    1
    5      1      6    1
    6      1      7    1
    7      4      8    1
    8      4      9    1
#
#	File Created by: Spartan'20 Export
#

@<TRIPOS>MOLECULE
M0089
15 14
SMALL
MULLIKEN_CHARGES


@<TRIPOS>ATOM
    1   C1         2.007797312    -0.165520358     0.252488429     C.3   1  noname   -0.401185
    2   C2         0.749723418     0.665260662     0.465653774     C.2   1  noname    0.205510
    3   O3         0.805026595     1.755179651     1.037370856     O.2   1  noname   -0.330790
    4   N4        -0.439847246     0.148232024    -0.000946830    N.am   1  noname   -0.002405
    5   C5        -0.589535576    -1.118525914    -0.689224938     C.3   1  noname   -0.303507
    6   C6        -1.667685581     0.899766294     0.198111241     C.3   1  noname   -0.291560
    7   H7         1.937018407    -1.153702937     0.730802564       H   1  noname    0.131848
    8   H8         2.222957844    -0.321788326    -0.815261750       H   1  noname    0.132218
    9   H9         2.838290266     0.387285945     0.702262981       H   1  noname    0.142899
   10   H10        0.375586665    -1.614881302    -0.818876836       H   1  noname    0.143038
   11   H11       -1.035650974    -0.967605468    -1.687876344       H   1  noname    0.126056
   12   H12       -1.254084425    -1.795228129    -0.124181073       H   1  noname    0.126055
   13   H13       -1.427071153     1.820415444     0.739626705       H   1  noname    0.166614
   14   H14       -2.392339111     0.306312813     0.780396466       H   1  noname    0.116673
   15   H15       -2.130186442     1.154799601    -0.770345244       H   1  noname    0.117592


@<TRIPOS>BOND
    1      1      2    1
    2      2      3    2
    3      2      4    am
    4      4      5    1
    5      4      6    1
    6      1      7    1
    7      1      8    1
    8      1      9    1
    9      5     10    1
   10      5     11    1
   11      5     12    1
   12      6     13    1
   13      6     14    1
   14      6     15    1
#
#	File Created by: Spartan'20 Export
#

@<TRIPOS>MOLECULE
M0090
22 22
SMALL
MULLIKEN_CHARGES


@<TRIPOS>ATOM
    1   C1        -3.189441419     0.724824862    -0.237977487     C.3   1  noname   -0.399602
    2   C2        -1.692149029     0.987623944    -0.198289543     C.2   1  noname    0.206976
    3   O3        -1.251362679     2.132207710    -0.214610421     O.2   1  noname   -0.303189
    4   N4        -0.868193561    -0.134929580    -0.140319161    N.am   1  noname    0.037761
    5   C5        -1.429785026    -1.479081301    -0.013650159     C.3   1  noname   -0.357940
    6   C6         0.546307336     0.001906029    -0.007108347     C.2   1  noname    0.122983
    7   C7         1.239890090    -0.818218680     0.894861725     C.2   1  noname   -0.148880
    8   C8         2.626848825    -0.723538731     1.015125665     C.2   1  noname   -0.113385
    9   C9         3.338811899     0.194816187     0.243047024     C.2   1  noname   -0.088885
   10   C10        2.648053437     1.014382050    -0.653369838     C.2   1  noname   -0.105134
   11   C11        1.263964121     0.922902821    -0.785253532     C.2   1  noname   -0.124379
   12   H12       -3.485032462     0.213922460    -1.166927003       H   1  noname    0.135609
   13   H13       -3.529079178     0.104658885     0.604305818       H   1  noname    0.134090
   14   H14       -3.690781151     1.696807863    -0.196054961       H   1  noname    0.144461
   15   H15       -2.309955551    -1.585330445    -0.658203078       H   1  noname    0.142664
   16   H16       -0.681303973    -2.209482577    -0.342796564       H   1  noname    0.158297
   17   H17       -1.725955829    -1.724065900     1.020903840       H   1  noname    0.139807
   18   H18        0.693381763    -1.526291988     1.519597286       H   1  noname    0.117949
   19   H19        3.147908587    -1.368731754     1.724897785       H   1  noname    0.108969
   20   H20        4.422887681     0.271949554     0.338350254       H   1  noname    0.109496
   21   H21        3.192939472     1.734435027    -1.266705658       H   1  noname    0.110573
   22   H22        0.732046647     1.569233564    -1.479823645       H   1  noname    0.130795


@<TRIPOS>BOND
    1      1      2    1
    2      2      3    2
    3      2      4    am
    4      4      5    1
    5      4      6    1
    6      6      7    2
    7      7      8    1
    8      8      9    2
    9      9     10    1
   10     10     11    2
   11     11      6    1
   12      1     12    1
   13      1     13    1
   14      1     14    1
   15      5     15    1
   16      5     16    1
   17      5     17    1
   18      7     18    1
   19      8     19    1
   20      9     20    1
   21     10     21    1
   22     11     22    1
#
#	File Created by: Spartan'20 Export
#

@<TRIPOS>MOLECULE
M0091
41 42
SMALL
MULLIKEN_CHARGES


@<TRIPOS>ATOM
    1   C1         1.033510166    -3.306610497     0.353471445     C.3   1  noname   -0.393023
    2   C2        -0.180851076    -2.384330269     0.351198386     C.2   1  noname    0.214209
    3   O3        -1.309622472    -2.852974844     0.531979929     O.2   1  noname   -0.343619
    4   N4         0.022071529    -1.043252376     0.135565030    N.am   1  noname    0.121427
    5   C5        -1.141768330    -0.134229847     0.104377174     C.3   1  noname   -0.008533
    6   C6        -1.909390955    -0.039230583     1.431888131     C.3   1  noname   -0.211268
    7   C7        -2.841648710     1.185823882     1.397166124     C.3   1  noname   -0.176906
    8   C8        -3.470473628     1.398267844    -0.001281517     C.3   1  noname   -0.172762
    9   C9        -3.519540578     0.082838353    -0.785643730     C.3   1  noname   -0.126402
   10   C10       -2.098117665    -0.426079125    -1.078382885     C.3   1  noname   -0.211859
   11   C11        1.349134956    -0.441830311    -0.063301826     C.3   1  noname   -0.209396
   12   C12        1.494232030     0.201889053    -1.452986170     C.3   1  noname   -0.121759
   13   C13        2.891226565     0.801207983    -1.645655091     C.3   1  noname   -0.157286
   14   C14        3.224438676     1.805560353    -0.538516289     C.3   1  noname   -0.148715
   15   C15        3.103657600     1.153760957     0.842120609     C.3   1  noname   -0.159631
   16   C16        1.711184284     0.550851652     1.055791842     C.3   1  noname   -0.132119
   17   H17        1.573718724    -3.283044938    -0.604807965       H   1  noname    0.128976
   18   H18        0.659000568    -4.320995930     0.524725164       H   1  noname    0.139990
   19   H19        1.748263636    -3.053379106     1.150835195       H   1  noname    0.129531
   20   H20       -0.706462289     0.862884203    -0.062651801       H   1  noname    0.068873
   21   H21       -1.198348547     0.040237593     2.268147429       H   1  noname    0.090022
   22   H22       -2.476955133    -0.965826589     1.585303473       H   1  noname    0.139138
   23   H23       -2.284343356     2.090319080     1.691543733       H   1  noname    0.087076
   24   H24       -3.634453814     1.054873967     2.150105034       H   1  noname    0.095776
   25   H25       -2.874441135     2.127259095    -0.577802534       H   1  noname    0.077930
   26   H26       -4.474767370     1.837480588     0.096022573       H   1  noname    0.098673
   27   H27       -4.066637315    -0.671185961    -0.196995325       H   1  noname    0.090663
   28   H28       -4.076167526     0.205333095    -1.727296877       H   1  noname    0.094954
   29   H29       -1.698639838     0.063879309    -1.982171415       H   1  noname    0.081643
   30   H30       -2.118059400    -1.506157087    -1.268838037       H   1  noname    0.121182
   31   H31        2.083523618    -1.257050139    -0.015503944       H   1  noname    0.066061
   32   H32        0.736679423     0.994683123    -1.577499699       H   1  noname    0.084715
   33   H33        1.283766745    -0.556781113    -2.223408381       H   1  noname    0.099046
   34   H34        2.962667953     1.276697893    -2.636334405       H   1  noname    0.103250
   35   H35        3.640722661    -0.011027369    -1.634757291       H   1  noname    0.084604
   36   H36        4.235805391     2.216767598    -0.682482210       H   1  noname    0.100580
   37   H37        2.523625154     2.657230661    -0.598463179       H   1  noname    0.078826
   38   H38        3.867203201     0.361067188     0.937474779       H   1  noname    0.085433
   39   H39        3.318553307     1.886448632     1.635785596       H   1  noname    0.103101
   40   H40        0.965183342     1.363247533     1.083739862       H   1  noname    0.087596
   41   H41        1.652519610     0.035376451     2.027539062       H   1  noname    0.098465


@<TRIPOS>BOND
    1      1      2    1
    2      2      3    2
    3      2      4    am
    4      4      5    1
    5      5      6    1
    6      6      7    1
    7      7      8    1
    8      8      9    1
    9      9     10    1
   10      4     11    1
   11     11     12    1
   12     12     13    1
   13     13     14    1
   14     14     15    1
   15     15     16    1
   16     10      5    1
   17     16     11    1
   18      1     17    1
   19      1     18    1
   20      1     19    1
   21      5     20    1
   22      6     21    1
   23      6     22    1
   24      7     23    1
   25      7     24    1
   26      8     25    1
   27      8     26    1
   28      9     27    1
   29      9     28    1
   30     10     29    1
   31     10     30    1
   32     11     31    1
   33     12     32    1
   34     12     33    1
   35     13     34    1
   36     13     35    1
   37     14     36    1
   38     14     37    1
   39     15     38    1
   40     15     39    1
   41     16     40    1
   42     16     41    1
#
#	File Created by: Spartan'20 Export
#

@<TRIPOS>MOLECULE
M0092
29 30
SMALL
MULLIKEN_CHARGES


@<TRIPOS>ATOM
    1   C1         0.965537290     2.754531510     1.130666118     C.3   1  noname   -0.364688
    2   C2        -0.329001734     2.082686564     0.708496651     C.2   1  noname    0.169182
    3   O3        -1.407095239     2.654932581     0.813853582     O.2   1  noname   -0.290754
    4   N4        -0.230824605     0.772092375     0.223852591    N.am   1  noname    0.118737
    5   C5         1.032358603     0.148195664    -0.039684890     C.2   1  noname   -0.012696
    6   C6         1.899281961     0.654737347    -1.014892855     C.2   1  noname   -0.140514
    7   C7         3.124302267     0.027231846    -1.251885836     C.2   1  noname   -0.093794
    8   C8         3.478677318    -1.117878658    -0.535961938     C.2   1  noname   -0.077990
    9   C9         2.602601594    -1.635321230     0.423256240     C.2   1  noname   -0.093378
   10   C10        1.385574701    -1.004834185     0.673269553     C.2   1  noname   -0.121836
   11   C11       -1.403338557    -0.018338354    -0.006054687     C.2   1  noname    0.088249
   12   C12       -2.472357710    -0.006086139     0.901007091     C.2   1  noname   -0.131547
   13   C13       -3.584572289    -0.814453870     0.672490546     C.2   1  noname   -0.105627
   14   C14       -3.646540082    -1.642830626    -0.450602239     C.2   1  noname   -0.083740
   15   C15       -2.578886454    -1.658266335    -1.350078299     C.2   1  noname   -0.116071
   16   C16       -1.463216257    -0.848960731    -1.132835920     C.2   1  noname   -0.114967
   17   H17        0.699948163     3.538495896     1.848433942       H   1  noname    0.142921
   18   H18        1.685465731     2.057080211     1.578070434       H   1  noname    0.142523
   19   H19        1.454098522     3.232038580     0.269748833       H   1  noname    0.129575
   20   H20        1.602699100     1.534700252    -1.587931510       H   1  noname    0.131675
   21   H21        3.797073452     0.427917373    -2.012182698       H   1  noname    0.116347
   22   H22        4.432478309    -1.610917499    -0.730183309       H   1  noname    0.116683
   23   H23        2.870902262    -2.533399875     0.982342358       H   1  noname    0.116633
   24   H24        0.692630455    -1.400562311     1.417585919       H   1  noname    0.129649
   25   H25       -2.434073370     0.640473637     1.775204173       H   1  noname    0.127188
   26   H26       -4.410679734    -0.799108138     1.385929402       H   1  noname    0.110611
   27   H27       -4.520761859    -2.272814982    -0.622994948       H   1  noname    0.109950
   28   H28       -2.613705747    -2.298496161    -2.233526712       H   1  noname    0.110258
   29   H29       -0.628576092    -0.862844742    -1.835391591       H   1  noname    0.126318


@<TRIPOS>BOND
    1      1      2    1
    2      2      3    2
    3      2      4    am
    4      4      5    1
    5      5      6    2
    6      6      7    1
    7      7      8    2
    8      8      9    1
    9      9     10    2
   10      4     11    1
   11     11     12    2
   12     12     13    1
   13     13     14    2
   14     14     15    1
   15     15     16    2
   16     10      5    1
   17     16     11    1
   18      1     17    1
   19      1     18    1
   20      1     19    1
   21      6     20    1
   22      7     21    1
   23      8     22    1
   24      9     23    1
   25     10     24    1
   26     12     25    1
   27     13     26    1
   28     14     27    1
   29     15     28    1
   30     16     29    1
#
#	File Created by: Spartan'20 Export
#

@<TRIPOS>MOLECULE
M0093
12 11
SMALL
MULLIKEN_CHARGES


@<TRIPOS>ATOM
    1   C1         1.905275462     0.016269468    -0.034813282     C.3   1  noname   -0.357329
    2   C2         0.490198224    -0.449156252     0.266412790     C.2   1  noname    0.266900
    3   O3         0.267666951    -1.475950403     0.903941912     O.2   1  noname   -0.333893
    4   N4        -0.505667263     0.359107672    -0.217677710    N.am   1  noname   -0.236152
    5   C5        -1.912971055     0.073058670    -0.020737457     C.3   1  noname   -0.260091
    6   H6         2.440090138    -0.797580221    -0.542046675       H   1  noname    0.138496
    7   H7         2.421358501     0.203874187     0.916783612       H   1  noname    0.137955
    8   H8         1.958189719     0.922977572    -0.654043097       H   1  noname    0.095325
    9   H9        -0.241843481     1.191506522    -0.731966089       H   1  noname    0.206462
   10   H10       -2.436893268    -0.036408818    -0.982652889       H   1  noname    0.123162
   11   H11       -2.406224610     0.864498442     0.564714050       H   1  noname    0.123295
   12   H12       -1.979179318    -0.872196839     0.532084837       H   1  noname    0.161909


@<TRIPOS>BOND
    1      1      2    1
    2      2      3    2
    3      2      4    am
    4      4      5    1
    5      1      6    1
    6      1      7    1
    7      1      8    1
    8      4      9    1
    9      5     10    1
   10      5     11    1
   11      5     12    1
#
#	File Created by: Spartan'20 Export
#

@<TRIPOS>MOLECULE
M0094
11 10
SMALL
MULLIKEN_CHARGES


@<TRIPOS>ATOM
    1   C1         0.358383108     0.000003942     1.806213437     C.3   1  noname   -0.339851
    2   C2        -0.357715803     0.000008397     0.479558715     C.2   1  noname    0.271493
    3   O3        -1.561406011     0.000034878     0.319698296     O.2   1  noname   -0.278718
    4   O4         0.537118332    -0.000020066    -0.547335478     O.3   1  noname   -0.180259
    5   C5        -0.052155391    -0.000008617    -1.864428427     C.3   1  noname   -0.211846
    6   H6         1.005767516     0.884584996     1.885610809       H   1  noname    0.134983
    7   H7         1.005957215    -0.884449172     1.885496368       H   1  noname    0.134982
    8   H8        -0.376156151    -0.000134248     2.617148136       H   1  noname    0.139307
    9   H9        -0.675647310    -0.893019007    -2.009452722       H   1  noname    0.134222
   10   H10       -0.675485292     0.893106463    -2.009504717       H   1  noname    0.134219
   11   H11        0.791339785    -0.000107565    -2.563004417       H   1  noname    0.132486


@<TRIPOS>BOND
    1      1      2    1
    2      2      3    2
    3      2      4    1
    4      4      5    1
    5      1      6    1
    6      1      7    1
    7      1      8    1
    8      5      9    1
    9      5     10    1
   10      5     11    1
#
#	File Created by: Spartan'20 Export
#

@<TRIPOS>MOLECULE
M0095
20 19
SMALL
MULLIKEN_CHARGES


@<TRIPOS>ATOM
    1   C1         0.752795917     0.000123484     2.898362227     C.3   1  noname   -0.353621
    2   C2        -0.156278428    -0.000111313     1.690142619     C.2   1  noname    0.295100
    3   O3        -1.371598704    -0.000243459     1.740673246     O.2   1  noname   -0.298670
    4   O4         0.588263546    -0.000118436     0.557044337     O.3   1  noname   -0.174295
    5   C5        -0.048374424    -0.000025930    -0.783901424     C.3   1  noname    0.170891
    6   C6        -0.880671812     1.269183458    -0.968097897     C.3   1  noname   -0.360778
    7   C7         1.159525307    -0.000095867    -1.718758354     C.3   1  noname   -0.319192
    8   C8        -0.880851350    -1.269089298    -0.968365655     C.3   1  noname   -0.360799
    9   H9         0.146486920    -0.000265447     3.809588760       H   1  noname    0.137192
   10   H10        1.404373581     0.885012556     2.881216357       H   1  noname    0.132418
   11   H11        1.405201338    -0.884150271     2.880997900       H   1  noname    0.132420
   12   H12       -1.218564900     1.332158732    -2.012762537       H   1  noname    0.112619
   13   H13       -0.274151940     2.159851532    -0.750305480       H   1  noname    0.112077
   14   H14       -1.758735958     1.263616375    -0.313155846       H   1  noname    0.153833
   15   H15        0.825907358    -0.000299765    -2.765868110       H   1  noname    0.109480
   16   H16        1.779401385    -0.891673277    -1.549619307       H   1  noname    0.117961
   17   H17        1.779361680     0.891548003    -1.549890735       H   1  noname    0.117954
   18   H18       -1.759063274    -1.263559040    -0.313621692       H   1  noname    0.153832
   19   H19       -0.274505527    -2.159880037    -0.750555940       H   1  noname    0.112082
   20   H20       -1.218520714    -1.331982000    -2.013122469       H   1  noname    0.112624


@<TRIPOS>BOND
    1      1      2    1
    2      2      3    2
    3      2      4    1
    4      4      5    1
    5      5      6    1
    6      5      7    1
    7      5      8    1
    8      1      9    1
    9      1     10    1
   10      1     11    1
   11      6     12    1
   12      6     13    1
   13      6     14    1
   14      7     15    1
   15      7     16    1
   16      7     17    1
   17      8     18    1
   18      8     19    1
   19      8     20    1
#
#	File Created by: Spartan'20 Export
#

@<TRIPOS>MOLECULE
M0096
18 18
SMALL
MULLIKEN_CHARGES


@<TRIPOS>ATOM
    1   C1         0.839387747     0.000352780    -2.904142051     C.3   1  noname   -0.356600
    2   C2        -0.419031708    -0.000275232    -2.063319644     C.2   1  noname    0.164789
    3   O3        -1.526597392    -0.000722534    -2.584238693     O.2   1  noname   -0.236914
    4   C4        -0.287737588    -0.000253454    -0.564120183     C.2   1  noname    0.117962
    5   C5         0.954137714    -0.000436095     0.091293140     C.2   1  noname   -0.140982
    6   C6         1.023518671    -0.000323467     1.480984967     C.2   1  noname   -0.172161
    7   C7        -0.161295924     0.000006440     2.238083293     C.2   1  noname    0.285824
    8   C8        -1.411425345     0.000144972     1.588055960     C.2   1  noname   -0.143384
    9   C9        -1.465183847    -0.000008383     0.201854065     C.2   1  noname   -0.131301
   10   C10       -0.096080166     0.000231436     3.665410820     C.1   1  noname   -0.292258
   11   N11       -0.043194783     0.000440208     4.830167722     N.1   1  noname    0.084905
   12   H12        1.457831546    -0.885339595    -2.690710952       H   1  noname    0.137492
   13   H13        1.456967515     0.886630276    -2.690632195       H   1  noname    0.137533
   14   H14        0.557285891     0.000241354    -3.962299425       H   1  noname    0.145639
   15   H15        1.880378130    -0.000703279    -0.484328989       H   1  noname    0.130612
   16   H16        1.987555493    -0.000468297     1.990024046       H   1  noname    0.139733
   17   H17       -2.325674331     0.000392142     2.182319048       H   1  noname    0.141552
   18   H18       -2.420841625     0.000090728    -0.324400929       H   1  noname    0.150299


@<TRIPOS>BOND
    1      1      2    1
    2      2      3    2
    3      2      4    1
    4      4      5    2
    5      5      6    1
    6      6      7    2
    7      7      8    1
    8      8      9    2
    9      7     10    1
   10     10     11    3
   11      9      4    1
   12      1     12    1
   13      1     13    1
   14      1     14    1
   15      5     15    1
   16      6     16    1
   17      8     17    1
   18      9     18    1
#
#	File Created by: Spartan'20 Export
#

@<TRIPOS>MOLECULE
M0097
22 22
SMALL
MULLIKEN_CHARGES


@<TRIPOS>ATOM
    1   C1        -1.044756629     0.000595862     3.746923724     C.3   1  noname   -0.352485
    2   C2         0.214486126    -0.000270433     2.905424663     C.2   1  noname    0.166252
    3   O3         1.321746078    -0.000786753     3.428829569     O.2   1  noname   -0.241862
    4   C4         0.078162104    -0.000387626     1.408521775     C.2   1  noname    0.119741
    5   C5        -1.169039129    -0.000520705     0.759063834     C.2   1  noname   -0.125326
    6   C6        -1.241763735    -0.000487452    -0.628920969     C.2   1  noname   -0.160198
    7   C7        -0.072417165    -0.000279026    -1.405180057     C.2   1  noname    0.117705
    8   C8         1.175101776    -0.000226527    -0.756110435     C.2   1  noname   -0.125311
    9   C9         1.247852852    -0.000305405     0.632314171     C.2   1  noname   -0.159929
   10   C10       -0.214383716    -0.000064824    -2.902155854     C.2   1  noname    0.167181
   11   O11       -1.324214306    -0.000264726    -3.420295386     O.2   1  noname   -0.242152
   12   C12        1.039374934     0.000450210    -3.751427120     C.3   1  noname   -0.352733
   13   H13       -1.662675680     0.886105996     3.531002913       H   1  noname    0.136211
   14   H14       -1.663684498    -0.884292000     3.531347491       H   1  noname    0.136173
   15   H15       -0.764241703     0.000620809     4.805449679       H   1  noname    0.141788
   16   H16       -2.091931828    -0.000674438     1.340784901       H   1  noname    0.123437
   17   H17       -2.202346356    -0.000585195    -1.146411812       H   1  noname    0.143034
   18   H18        2.097164101    -0.000107952    -1.339305566       H   1  noname    0.123668
   19   H19        2.208549619    -0.000260134     1.149269976       H   1  noname    0.142914
   20   H20        1.659155808    -0.884897786    -3.540732950       H   1  noname    0.136058
   21   H21        0.751193695     0.000582720    -4.808017022       H   1  noname    0.141908
   22   H22        1.658667652     0.886055384    -3.540375525       H   1  noname    0.136069


@<TRIPOS>BOND
    1      1      2    1
    2      2      3    2
    3      2      4    1
    4      4      5    2
    5      5      6    1
    6      6      7    2
    7      7      8    1
    8      8      9    2
    9      7     10    1
   10     10     11    2
   11     10     12    1
   12      9      4    1
   13      1     13    1
   14      1     14    1
   15      1     15    1
   16      5     16    1
   17      6     17    1
   18      8     18    1
   19      9     19    1
   20     12     20    1
   21     12     21    1
   22     12     22    1
#
#	File Created by: Spartan'20 Export
#

@<TRIPOS>MOLECULE
M0098
20 20
SMALL
MULLIKEN_CHARGES


@<TRIPOS>ATOM
    1   C1        -3.328688853    -0.102865880    -0.723970298     C.3   1  noname   -0.352978
    2   C2        -2.445225819    -0.039867304     0.504554490     C.2   1  noname    0.169348
    3   O3        -2.930042905    -0.015755148     1.628260812     O.2   1  noname   -0.239527
    4   C4        -0.952468176    -0.004922292     0.319684672     C.2   1  noname    0.114046
    5   C5        -0.342379214    -0.051509756    -0.943432589     C.2   1  noname   -0.146197
    6   C6         1.045164683    -0.016465241    -1.062112109     C.2   1  noname   -0.178183
    7   C7         1.836917190     0.069096508     0.086527613     C.2   1  noname    0.095088
    8   C8         1.240673443     0.115953530     1.352754281     C.2   1  noname   -0.138888
    9   C9        -0.144131835     0.079128813     1.464004973     C.2   1  noname   -0.135481
   10   C10        3.340202798     0.056416766    -0.043559961     C.3   1  noname    0.428369
   11   F11        3.818767041    -1.219648067    -0.107073333       F   1  noname   -0.123577
   12   F12        3.760462930     0.689416229    -1.170961815       F   1  noname   -0.126763
   13   F13        3.952747450     0.655946604     1.009048891       F   1  noname   -0.124968
   14   H14       -3.151295325     0.762195474    -1.381393841       H   1  noname    0.136151
   15   H15       -4.376653518    -0.110811551    -0.406213939       H   1  noname    0.143608
   16   H16       -3.119731581    -1.007982126    -1.315252695       H   1  noname    0.136076
   17   H17       -0.950411858    -0.114790658    -1.846715553       H   1  noname    0.126593
   18   H18        1.514572214    -0.048729113    -2.045675340       H   1  noname    0.136483
   19   H19        1.865209172     0.188114898     2.243439866       H   1  noname    0.140072
   20   H20       -0.633687837     0.117078313     2.438085876       H   1  noname    0.147642


@<TRIPOS>BOND
    1      1      2    1
    2      2      3    2
    3      2      4    1
    4      4      5    2
    5      5      6    1
    6      6      7    2
    7      7      8    1
    8      8      9    2
    9      7     10    1
   10     10     11    1
   11     10     12    1
   12     10     13    1
   13      9      4    1
   14      1     14    1
   15      1     15    1
   16      1     16    1
   17      5     17    1
   18      6     18    1
   19      8     19    1
   20      9     20    1
#
#	File Created by: Spartan'20 Export
#

@<TRIPOS>MOLECULE
M0099
17 17
SMALL
MULLIKEN_CHARGES


@<TRIPOS>ATOM
    1   C1         0.796046743     0.000237887    -2.650805721     C.3   1  noname   -0.354403
    2   C2        -0.450821066    -0.000216968    -1.788865214     C.2   1  noname    0.171068
    3   O3        -1.564877261    -0.000550748    -2.299698954     O.2   1  noname   -0.248460
    4   C4        -0.295544177    -0.000178100    -0.298289505     C.2   1  noname    0.095827
    5   C5         0.952887151    -0.000300292     0.343089080     C.2   1  noname   -0.138098
    6   C6         1.045363860    -0.000185466     1.734483951     C.2   1  noname   -0.175363
    7   C7        -0.127207701     0.000064173     2.493468853     C.2   1  noname    0.220553
    8   C8        -1.383713245     0.000154357     1.879181272     C.2   1  noname   -0.146980
    9   C9        -1.457286473     0.000017248     0.491677728     C.2   1  noname   -0.125572
   10   Cl10      -0.024864881     0.000273316     4.230141941      Cl   1  noname   -0.090951
   11   H11        1.418436156    -0.885175351    -2.447133898       H   1  noname    0.133907
   12   H12        0.496148412     0.000069514    -3.704257429       H   1  noname    0.141312
   13   H13        1.417727779     0.886161726    -2.447185226       H   1  noname    0.133938
   14   H14        1.872942990    -0.000519060    -0.243424430       H   1  noname    0.123801
   15   H15        2.015253660    -0.000278050     2.232256746       H   1  noname    0.127282
   16   H16       -2.286455030     0.000342660     2.490061246       H   1  noname    0.130016
   17   H17       -2.424036917     0.000083154    -0.014700441       H   1  noname    0.145445


@<TRIPOS>BOND
    1      1      2    1
    2      2      3    2
    3      2      4    1
    4      4      5    2
    5      5      6    1
    6      6      7    2
    7      7      8    1
    8      8      9    2
    9      7     10    1
   10      9      4    1
   11      1     11    1
   12      1     12    1
   13      1     13    1
   14      5     14    1
   15      6     15    1
   16      8     16    1
   17      9     17    1
#
#	File Created by: Spartan'20 Export
#

@<TRIPOS>MOLECULE
M0100
17 17
SMALL
MULLIKEN_CHARGES


@<TRIPOS>ATOM
    1   C1         0.795579978     0.000229490     2.625433160     C.3   1  noname   -0.352989
    2   C2        -0.452641137    -0.000219437     1.764644094     C.2   1  noname    0.169050
    3   O3        -1.565887825    -0.000549485     2.277680601     O.2   1  noname   -0.250749
    4   C4        -0.296633126    -0.000176107     0.275572640     C.2   1  noname    0.126262
    5   C5         0.954640628    -0.000292021    -0.362294333     C.2   1  noname   -0.148963
    6   C6         1.051342912    -0.000173269    -1.753484334     C.2   1  noname   -0.184228
    7   C7        -0.123489931     0.000074037    -2.499948557     C.2   1  noname    0.318252
    8   C8        -1.383584160     0.000161773    -1.904395387     C.2   1  noname   -0.158497
    9   C9        -1.458496741     0.000019700    -0.516473013     C.2   1  noname   -0.132499
   10   F10       -0.038624965     0.000237810    -3.850105814       F   1  noname   -0.145675
   11   H11        1.417601666    -0.885143242     2.420406896       H   1  noname    0.133128
   12   H12        1.416897210     0.886111473     2.420463794       H   1  noname    0.133159
   13   H13        0.497191542     0.000056916     3.679188616       H   1  noname    0.140504
   14   H14        1.872557270    -0.000510196     0.227077686       H   1  noname    0.122715
   15   H15        2.015264821    -0.000259775    -2.263294242       H   1  noname    0.119495
   16   H16       -2.276662263     0.000350957    -2.530315688       H   1  noname    0.121470
   17   H17       -2.425055880     0.000081378    -0.010156120       H   1  noname    0.137509


@<TRIPOS>BOND
    1      1      2    1
    2      2      3    2
    3      2      4    1
    4      4      5    2
    5      5      6    1
    6      6      7    2
    7      7      8    1
    8      8      9    2
    9      7     10    1
   10      9      4    1
   11      1     11    1
   12      1     12    1
   13      1     13    1
   14      5     14    1
   15      6     15    1
   16      8     16    1
   17      9     17    1
#
#	File Created by: Spartan'20 Export
#

@<TRIPOS>MOLECULE
M0101
19 19
SMALL
MULLIKEN_CHARGES


@<TRIPOS>ATOM
    1   C1         3.098852531     0.000429995    -0.839621968     C.3   1  noname   -0.354049
    2   C2         2.261047253    -0.000335266     0.420460643     C.2   1  noname    0.169659
    3   O3         2.781546473    -0.000888784     1.527654512     O.2   1  noname   -0.233793
    4   C4         0.760318431    -0.000315636     0.288947404     C.2   1  noname    0.127078
    5   C5         0.110222444    -0.000480122    -0.956090752     C.2   1  noname   -0.133938
    6   C6        -1.280434751    -0.000355878    -1.030889621     C.2   1  noname   -0.140555
    7   C7        -2.011603788    -0.000025754     0.154545585     C.2   1  noname    0.055401
    8   C8        -1.396183429     0.000092872     1.407426327     C.2   1  noname   -0.111829
    9   C9        -0.007945035    -0.000084674     1.465172285     C.2   1  noname   -0.125883
   10   N10       -3.496548228     0.000253218     0.077948152       N   1  noname    0.401010
   11   O11       -4.119230474     0.000856900     1.140329565       O   1  noname   -0.251889
   12   O12       -4.007394815    -0.000112452    -1.043286288     O.2   1  noname   -0.253449
   13   H13        4.157900514     0.000423062    -0.561486501       H   1  noname    0.146112
   14   H14        2.882182973     0.886338454    -1.456801954       H   1  noname    0.138324
   15   H15        2.882451852    -0.884911306    -1.457709825       H   1  noname    0.138283
   16   H16        0.687811088    -0.000739177    -1.880857277       H   1  noname    0.131327
   17   H17       -1.806089002    -0.000479023    -1.984623446       H   1  noname    0.158818
   18   H18       -2.011344217     0.000342001     2.306309208       H   1  noname    0.160097
   19   H19        0.514440180    -0.000008430     2.422573951       H   1  noname    0.151456


@<TRIPOS>BOND
    1      1      2    1
    2      2      3    2
    3      2      4    1
    4      4      5    2
    5      5      6    1
    6      6      7    2
    7      7      8    1
    8      8      9    2
    9      7     10    1
   10     10     11    1
   11     10     12    2
   12      9      4    1
   13      1     13    1
   14      1     14    1
   15      1     15    1
   16      5     16    1
   17      6     17    1
   18      8     18    1
   19      9     19    1
#
#	File Created by: Spartan'20 Export
#

@<TRIPOS>MOLECULE
M0102
25 25
SMALL
MULLIKEN_CHARGES


@<TRIPOS>ATOM
    1   C1         4.194477505    -0.524020887     0.283009876     C.3   1  noname   -0.348332
    2   C2         3.247844166     0.660074080     0.404857875     C.2   1  noname    0.157607
    3   O3         3.689212283     1.780811235     0.655554429     O.2   1  noname   -0.271386
    4   C4         1.794930621     0.425104660     0.214780419     C.2   1  noname    0.104291
    5   C5         0.902137973     1.506423695     0.336109250     C.2   1  noname   -0.190606
    6   C6        -0.461859113     1.346265242     0.171883068     C.2   1  noname   -0.151518
    7   C7        -1.013841046     0.073554676    -0.136019794     C.2   1  noname    0.213608
    8   C8        -0.116011094    -1.019243037    -0.243736989     C.2   1  noname   -0.196043
    9   C9         1.248790501    -0.837412890    -0.074489980     C.2   1  noname   -0.184785
   10   N10       -2.367608953    -0.093058708    -0.322456064   N.pl3   1  noname    0.025982
   11   C11       -2.920942153    -1.424359559    -0.490797939     C.3   1  noname   -0.310911
   12   C12       -3.277105476     1.012778169    -0.081505077     C.3   1  noname   -0.313112
   13   H13        4.140295899    -0.971538770    -0.721475509       H   1  noname    0.125881
   14   H14        5.216602679    -0.178350629     0.471147672       H   1  noname    0.133237
   15   H15        3.935958860    -1.313521984     1.005094021       H   1  noname    0.124353
   16   H16        1.318911276     2.487241539     0.571897372       H   1  noname    0.130419
   17   H17       -1.112951090     2.211578327     0.287487165       H   1  noname    0.106908
   18   H18       -0.491171214    -2.018999166    -0.456966956       H   1  noname    0.103561
   19   H19        1.901279026    -1.707281889    -0.166528823       H   1  noname    0.109361
   20   H20       -2.775260519    -2.058549907     0.403349543       H   1  noname    0.133772
   21   H21       -3.997083753    -1.344400812    -0.681440058       H   1  noname    0.126639
   22   H22       -2.465587759    -1.938537534    -1.352058112       H   1  noname    0.138619
   23   H23       -3.010884317     1.884543502    -0.699020540       H   1  noname    0.140776
   24   H24       -3.286633839     1.332305596     0.977074264       H   1  noname    0.135346
   25   H25       -4.293500462     0.708595052    -0.355749116       H   1  noname    0.125740


@<TRIPOS>BOND
    1      1      2    1
    2      2      3    2
    3      2      4    1
    4      4      5    2
    5      5      6    1
    6      6      7    2
    7      7      8    1
    8      8      9    2
    9      7     10    1
   10     10     11    1
   11     10     12    1
   12      9      4    1
   13      1     13    1
   14      1     14    1
   15      1     15    1
   16      5     16    1
   17      6     17    1
   18      8     18    1
   19      9     19    1
   20     11     20    1
   21     11     21    1
   22     11     22    1
   23     12     23    1
   24     12     24    1
   25     12     25    1
#
#	File Created by: Spartan'20 Export
#

@<TRIPOS>MOLECULE
M0103
21 21
SMALL
MULLIKEN_CHARGES


@<TRIPOS>ATOM
    1   C1         0.820065935     0.000362349    -3.613834551     C.3   1  noname   -0.353881
    2   C2        -0.374821746    -0.000124749    -2.676917128     C.2   1  noname    0.170350
    3   O3        -1.516876555    -0.000349532    -3.127783266     O.2   1  noname   -0.262042
    4   C4        -0.127949037    -0.000244733    -1.206094184     C.2   1  noname    0.088084
    5   C5         1.160784304    -0.000355531    -0.638808372     C.2   1  noname   -0.133677
    6   C6         1.338050679    -0.000332744     0.737078943     C.2   1  noname   -0.168279
    7   C7         0.220789902    -0.000175133     1.590575885     C.2   1  noname    0.274151
    8   C8        -1.073338219    -0.000143867     1.041456992     C.2   1  noname   -0.165136
    9   C9        -1.231486722    -0.000190949    -0.339710015     C.2   1  noname   -0.173887
   10   O10        0.492312392    -0.000057565     2.923307063     O.3   1  noname   -0.175268
   11   C11       -0.613025863     0.000259872     3.827635888     C.3   1  noname   -0.235241
   12   H12        1.451897421     0.886504429    -3.447927388       H   1  noname    0.129897
   13   H13        1.452505025    -0.885371790    -3.448084014       H   1  noname    0.129871
   14   H14        0.457382104     0.000311359    -4.647370135       H   1  noname    0.136496
   15   H15        2.041873981    -0.000479642    -1.282747295       H   1  noname    0.118171
   16   H16        2.334313667    -0.000409558     1.181335721       H   1  noname    0.116129
   17   H17       -1.954622332    -0.000073592     1.681915552       H   1  noname    0.117868
   18   H18       -2.228977714    -0.000155137    -0.782889427       H   1  noname    0.136005
   19   H19       -1.236872544     0.900085675     3.698377155       H   1  noname    0.132699
   20   H20       -1.237138762    -0.899423026     3.698681802       H   1  noname    0.132695
   21   H21       -0.174865916     0.000363867     4.831800773       H   1  noname    0.145280


@<TRIPOS>BOND
    1      1      2    1
    2      2      3    2
    3      2      4    1
    4      4      5    2
    5      5      6    1
    6      6      7    2
    7      7      8    1
    8      8      9    2
    9      7     10    1
   10     10     11    1
   11      9      4    1
   12      1     12    1
   13      1     13    1
   14      1     14    1
   15      5     15    1
   16      6     16    1
   17      8     17    1
   18      9     18    1
   19     11     19    1
   20     11     20    1
   21     11     21    1
#
#	File Created by: Spartan'20 Export
#

@<TRIPOS>MOLECULE
M0104
21 21
SMALL
MULLIKEN_CHARGES


@<TRIPOS>ATOM
    1   C1         3.751498805     0.428136854    -0.245821291     C.3   1  noname   -0.353414
    2   C2         2.587556412    -0.299231203    -0.894459627     C.2   1  noname    0.168346
    3   O3         2.774877361    -1.047832772    -1.849252569     O.2   1  noname   -0.259157
    4   C4         1.217805985    -0.082423536    -0.344685725     C.2   1  noname    0.093996
    5   C5         0.138195261    -0.757394948    -0.936319019     C.2   1  noname   -0.167646
    6   C6        -1.161065247    -0.593526633    -0.472177054     C.2   1  noname   -0.159919
    7   C7        -1.420105559     0.262263078     0.613964046     C.2   1  noname    0.218745
    8   C8        -0.342972778     0.942695818     1.216162991     C.2   1  noname   -0.176750
    9   C9         0.950382242     0.770156183     0.742052044     C.2   1  noname   -0.148111
   10   S10       -3.012330658     0.562073512     1.294614374     S.3   1  noname   -0.021317
   11   C11       -4.118279006    -0.449208362     0.280958535     C.3   1  noname   -0.370051
   12   H12        4.669170217     0.182824217    -0.791071074       H   1  noname    0.137463
   13   H13        3.596751738     1.517843148    -0.254724059       H   1  noname    0.129699
   14   H14        3.863146350     0.124801649     0.806936490       H   1  noname    0.131504
   15   H15        0.347634798    -1.419053949    -1.778990266       H   1  noname    0.137988
   16   H16       -1.973139809    -1.133326484    -0.958790492       H   1  noname    0.112222
   17   H17       -0.530050262     1.610341853     2.060077437       H   1  noname    0.115500
   18   H18        1.763165536     1.311656029     1.228378412       H   1  noname    0.118150
   19   H19       -5.120648636    -0.290075049     0.698509109       H   1  noname    0.157490
   20   H20       -4.113426288    -0.124675462    -0.768142893       H   1  noname    0.151059
   21   H21       -3.868166465    -1.516043941     0.352780633       H   1  noname    0.150583


@<TRIPOS>BOND
    1      1      2    1
    2      2      3    2
    3      2      4    1
    4      4      5    2
    5      5      6    1
    6      6      7    2
    7      7      8    1
    8      8      9    2
    9      7     10    1
   10     10     11    1
   11      9      4    1
   12      1     12    1
   13      1     13    1
   14      1     14    1
   15      5     15    1
   16      6     16    1
   17      8     17    1
   18      9     18    1
   19     11     19    1
   20     11     20    1
   21     11     21    1
#
#	File Created by: Spartan'20 Export
#

@<TRIPOS>MOLECULE
M0105
22 22
SMALL
MULLIKEN_CHARGES


@<TRIPOS>ATOM
    1   C1        -1.900100226     0.000386175     2.874648760     C.3   1  noname   -0.344359
    2   C2        -0.388296583    -0.000206879     2.789819075     C.2   1  noname    0.153923
    3   O3         0.303359531    -0.000610709     3.800252170     O.2   1  noname   -0.244479
    4   C4         0.250686362    -0.000220285     1.428694600     C.2   1  noname    0.144107
    5   C5         1.654929864    -0.000035947     1.346164319     C.2   1  noname   -0.118703
    6   C6         2.286637234     0.000060812     0.106644468     C.2   1  noname   -0.100536
    7   C7         1.527983166    -0.000032410    -1.067390904     C.2   1  noname   -0.125678
    8   C8         0.126429345    -0.000268499    -1.006723868     C.2   1  noname    0.072613
    9   C9        -0.498256721    -0.000373074     0.249729745     C.2   1  noname   -0.203549
   10   C10       -0.747525524    -0.000376891    -2.229077170     C.2   1  noname    0.174475
   11   O11       -1.967746262    -0.000881431    -2.121226294     O.2   1  noname   -0.248259
   12   C12       -0.089767513     0.000199214    -3.593792858     C.3   1  noname   -0.357765
   13   H13       -2.322620728    -0.883012602     2.371810012       H   1  noname    0.137864
   14   H14       -2.321920825     0.884165195     2.371891134       H   1  noname    0.137877
   15   H15       -2.197736620     0.000433967     3.928531088       H   1  noname    0.140359
   16   H16        2.226298187     0.000049583     2.275932591       H   1  noname    0.145958
   17   H17        3.376432515     0.000227216     0.048597489       H   1  noname    0.121849
   18   H18        2.035689734     0.000060282    -2.032915757       H   1  noname    0.125945
   19   H19       -1.589089297    -0.000597302     0.264529549       H   1  noname    0.147396
   20   H20        0.552107382    -0.885004806    -3.721641334       H   1  noname    0.135402
   21   H21        0.551458917     0.885937821    -3.721194199       H   1  noname    0.135414
   22   H22       -0.868951939     0.000100572    -4.363282618       H   1  noname    0.142324


@<TRIPOS>BOND
    1      1      2    1
    2      2      3    2
    3      2      4    1
    4      4      5    2
    5      5      6    1
    6      6      7    2
    7      7      8    1
    8      8      9    2
    9      8     10    1
   10     10     11    2
   11     10     12    1
   12      9      4    1
   13      1     13    1
   14      1     14    1
   15      1     15    1
   16      5     16    1
   17      6     17    1
   18      7     18    1
   19      9     19    1
   20     12     20    1
   21     12     21    1
   22     12     22    1
#
#	File Created by: Spartan'20 Export
#

@<TRIPOS>MOLECULE
M0106
20 20
SMALL
MULLIKEN_CHARGES


@<TRIPOS>ATOM
    1   C1         3.297073331    -0.415956161     0.186692575     C.3   1  noname   -0.356031
    2   C2         1.930779447    -1.068849234     0.202352159     C.2   1  noname    0.173581
    3   O3         1.812097998    -2.278730558     0.341901245     O.2   1  noname   -0.239083
    4   C4         0.714877944    -0.197308206     0.044469626     C.2   1  noname    0.094387
    5   C5         0.788681664     1.194498771    -0.121014024     C.2   1  noname   -0.125459
    6   C6        -0.373811386     1.953304156    -0.259741204     C.2   1  noname   -0.116291
    7   C7        -1.622735438     1.332705022    -0.237802048     C.2   1  noname   -0.123764
    8   C8        -1.702104868    -0.055871043    -0.078673600     C.2   1  noname    0.107440
    9   C9        -0.543388917    -0.815411847     0.064017036     C.2   1  noname   -0.225764
   10   C10       -3.047797360    -0.739338227    -0.019343911     C.3   1  noname    0.426598
   11   F11       -3.425964952    -0.984395620     1.268097843       F   1  noname   -0.123970
   12   F12       -4.031194817     0.012816574    -0.581619722       F   1  noname   -0.128693
   13   F13       -3.038408653    -1.936686289    -0.660274884       F   1  noname   -0.122901
   14   H14        4.060860255    -1.190634740     0.311989410       H   1  noname    0.144198
   15   H15        3.388211717     0.323097567     0.997549933       H   1  noname    0.136074
   16   H16        3.467318507     0.118676879    -0.760470282       H   1  noname    0.135352
   17   H17        1.758275588     1.693152428    -0.144629911       H   1  noname    0.126545
   18   H18       -0.308602848     3.034482331    -0.389521110       H   1  noname    0.124474
   19   H19       -2.534801080     1.919052637    -0.350896925       H   1  noname    0.140983
   20   H20       -0.589366133    -1.898604439     0.186917795       H   1  noname    0.159333


@<TRIPOS>BOND
    1      1      2    1
    2      2      3    2
    3      2      4    1
    4      4      5    2
    5      5      6    1
    6      6      7    2
    7      7      8    1
    8      8      9    2
    9      8     10    1
   10     10     11    1
   11     10     12    1
   12     10     13    1
   13      9      4    1
   14      1     14    1
   15      1     15    1
   16      1     16    1
   17      5     17    1
   18      6     18    1
   19      7     19    1
   20      9     20    1
#
#	File Created by: Spartan'20 Export
#

@<TRIPOS>MOLECULE
M0107
17 17
SMALL
MULLIKEN_CHARGES


@<TRIPOS>ATOM
    1   C1        -0.570640865     0.000233001    -2.700340174     C.3   1  noname   -0.353873
    2   C2        -1.235763511    -0.000240655    -1.338384391     C.2   1  noname    0.178173
    3   O3        -2.455747985    -0.000621032    -1.234807731     O.2   1  noname   -0.242601
    4   C4        -0.362644268    -0.000181604    -0.113260408     C.2   1  noname    0.098584
    5   C5         1.038666200    -0.000272560    -0.176554904     C.2   1  noname   -0.143676
    6   C6         1.792481079    -0.000139334     0.997541785     C.2   1  noname   -0.114987
    7   C7         1.164558514     0.000083364     2.243642881     C.2   1  noname   -0.128187
    8   C8        -0.232988436     0.000134264     2.299408485     C.2   1  noname    0.220353
    9   C9        -0.997865972    -0.000007838     1.139106931     C.2   1  noname   -0.212137
   10   Cl10      -1.025175209     0.000397459     3.853105272      Cl   1  noname   -0.097613
   11   H11       -1.347096263     0.000220654    -3.472717664       H   1  noname    0.142006
   12   H12        0.071505419     0.886011865    -2.824381500       H   1  noname    0.134914
   13   H13        0.071919949    -0.885185686    -2.824798631       H   1  noname    0.134892
   14   H14        1.547668826    -0.000476140    -1.140381795       H   1  noname    0.123938
   15   H15        2.882704736    -0.000201841     0.946958902       H   1  noname    0.120853
   16   H16        1.745974137     0.000213195     3.165528918       H   1  noname    0.130104
   17   H17       -2.087556352     0.000032888     1.180334028       H   1  noname    0.152451


@<TRIPOS>BOND
    1      1      2    1
    2      2      3    2
    3      2      4    1
    4      4      5    2
    5      5      6    1
    6      6      7    2
    7      7      8    1
    8      8      9    2
    9      8     10    1
   10      9      4    1
   11      1     11    1
   12      1     12    1
   13      1     13    1
   14      5     14    1
   15      6     15    1
   16      7     16    1
   17      9     17    1
#
#	File Created by: Spartan'20 Export
#

@<TRIPOS>MOLECULE
M0108
17 17
SMALL
MULLIKEN_CHARGES


@<TRIPOS>ATOM
    1   C1         0.015987018     0.000237169    -2.741661158     C.3   1  noname   -0.352381
    2   C2        -0.929589391    -0.000249000    -1.557218790     C.2   1  noname    0.174945
    3   O3        -2.142948447    -0.000625672    -1.722716150     O.2   1  noname   -0.243896
    4   C4        -0.346232847    -0.000188572    -0.171305119     C.2   1  noname    0.144243
    5   C5         1.036603573    -0.000291149     0.072796171     C.2   1  noname   -0.175410
    6   C6         1.520107376    -0.000156327     1.382157655     C.2   1  noname   -0.086212
    7   C7         0.636789621     0.000090953     2.462655578     C.2   1  noname   -0.168992
    8   C8        -0.732999897     0.000157981     2.199970893     C.2   1  noname    0.351760
    9   C9        -1.240258465     0.000007451     0.911207542     C.2   1  noname   -0.256767
   10   F10       -1.593740424     0.000394100     3.246107321       F   1  noname   -0.149554
   11   H11       -0.574216101     0.000175769    -3.664342346       H   1  noname    0.141761
   12   H12        0.669185566     0.886283328    -2.723931003       H   1  noname    0.134535
   13   H13        0.669761527    -0.885389664    -2.724216320       H   1  noname    0.134512
   14   H14        1.741640378    -0.000505792    -0.758605916       H   1  noname    0.120571
   15   H15        2.595474835    -0.000233687     1.567091460       H   1  noname    0.116861
   16   H16        0.989696669     0.000230220     3.494402087       H   1  noname    0.121942
   17   H17       -2.315260991     0.000062891     0.727608094       H   1  noname    0.140091


@<TRIPOS>BOND
    1      1      2    1
    2      2      3    2
    3      2      4    1
    4      4      5    2
    5      5      6    1
    6      6      7    2
    7      7      8    1
    8      8      9    2
    9      8     10    1
   10      9      4    1
   11      1     11    1
   12      1     12    1
   13      1     13    1
   14      5     14    1
   15      6     15    1
   16      7     16    1
   17      9     17    1
#
#	File Created by: Spartan'20 Export
#

@<TRIPOS>MOLECULE
M0109
21 21
SMALL
MULLIKEN_CHARGES


@<TRIPOS>ATOM
    1   C1        -0.154950667     0.000398241     3.394107749     C.3   1  noname   -0.355102
    2   C2        -0.797924504    -0.000417764     2.021095209     C.2   1  noname    0.179262
    3   O3        -2.018568923    -0.001040670     1.904770338     O.2   1  noname   -0.256594
    4   C4         0.089691895    -0.000336406     0.811124776     C.2   1  noname    0.059938
    5   C5         1.487900832    -0.000331437     0.897746006     C.2   1  noname   -0.157461
    6   C6         2.252449045    -0.000189147    -0.273278700     C.2   1  noname   -0.113869
    7   C7         1.637417520    -0.000009275    -1.520007554     C.2   1  noname   -0.120296
    8   C8         0.233401406    -0.000025666    -1.612177867     C.2   1  noname    0.279056
    9   C9        -0.536123587    -0.000226815    -0.448091690     C.2   1  noname   -0.241144
   10   O10       -0.274172326     0.000174944    -2.879153954     O.3   1  noname   -0.185807
   11   C11       -1.693833296     0.000238659    -3.019801114     C.3   1  noname   -0.234710
   12   H12        0.485319402    -0.884711206     3.528301214       H   1  noname    0.133142
   13   H13        0.484405690     0.886269985     3.527634581       H   1  noname    0.133171
   14   H14       -0.943545621     0.000253791     4.154052170       H   1  noname    0.137970
   15   H15        1.984409409    -0.000487280     1.867523361       H   1  noname    0.118645
   16   H16        3.342189417    -0.000198409    -0.213118105       H   1  noname    0.115006
   17   H17        2.221157324     0.000150138    -2.441906218       H   1  noname    0.118784
   18   H18       -1.625575897    -0.000287397    -0.466349716       H   1  noname    0.142863
   19   H19       -2.143857380    -0.898874007    -2.566976827       H   1  noname    0.132734
   20   H20       -1.885979089     0.000438206    -4.098841213       H   1  noname    0.141928
   21   H21       -2.143810650     0.899211517    -2.566652448       H   1  noname    0.132727


@<TRIPOS>BOND
    1      1      2    1
    2      2      3    2
    3      2      4    1
    4      4      5    2
    5      5      6    1
    6      6      7    2
    7      7      8    1
    8      8      9    2
    9      8     10    1
   10     10     11    1
   11      9      4    1
   12      1     12    1
   13      1     13    1
   14      1     14    1
   15      5     15    1
   16      6     16    1
   17      7     17    1
   18      9     18    1
   19     11     19    1
   20     11     20    1
   21     11     21    1
#
#	File Created by: Spartan'20 Export
#

@<TRIPOS>MOLECULE
M0110
17 17
SMALL
MULLIKEN_CHARGES


@<TRIPOS>ATOM
    1   C1         0.815951019     0.000229544     2.603955492     C.3   1  noname   -0.353177
    2   C2        -0.439598285    -0.000234731     1.754235622     C.2   1  noname    0.172413
    3   O3        -1.547863320    -0.000595022     2.277370982     O.2   1  noname   -0.249339
    4   C4        -0.296098144    -0.000177504     0.260399955     C.2   1  noname    0.092552
    5   C5         0.952647998    -0.000287778    -0.383422096     C.2   1  noname   -0.141617
    6   C6         1.030735106    -0.000158447    -1.776655635     C.2   1  noname   -0.120481
    7   C7        -0.137864455     0.000091585    -2.541608855     C.2   1  noname   -0.073198
    8   C8        -1.386645307     0.000170741    -1.909552921     C.2   1  noname   -0.086888
    9   C9        -1.464193001     0.000021661    -0.520549342     C.2   1  noname   -0.130523
   10   H10        0.527358767     0.000122123     3.660511474       H   1  noname    0.139014
   11   H11        1.435523577    -0.885225832     2.392665582       H   1  noname    0.132998
   12   H12        1.434872489     0.886133890     2.392636817       H   1  noname    0.133024
   13   H13        1.872936348    -0.000507651     0.202636917       H   1  noname    0.119176
   14   H14        2.005940513    -0.000244954    -2.267008352       H   1  noname    0.115605
   15   H15       -0.076508273     0.000223292    -3.631765629       H   1  noname    0.117523
   16   H16       -2.300394459     0.000360124    -2.506970702       H   1  noname    0.117804
   17   H17       -2.426800573     0.000078958    -0.006879307       H   1  noname    0.140876


@<TRIPOS>BOND
    1      1      2    1
    2      2      3    2
    3      2      4    1
    4      4      5    2
    5      5      6    1
    6      6      7    2
    7      7      8    1
    8      8      9    2
    9      9      4    1
   10      1     10    1
   11      1     11    1
   12      1     12    1
   13      5     13    1
   14      6     14    1
   15      7     15    1
   16      8     16    1
   17      9     17    1
#
#	File Created by: Spartan'20 Export
#

@<TRIPOS>MOLECULE
M0111
16 16
SMALL
MULLIKEN_CHARGES


@<TRIPOS>ATOM
    1   C1         0.752486000     0.000231827    -2.413435117     C.3   1  noname   -0.352012
    2   C2        -0.481224074    -0.000257741    -1.538030150     C.2   1  noname    0.167653
    3   O3        -1.603876718    -0.000664806    -2.023091542     O.2   1  noname   -0.234742
    4   C4        -0.301964661    -0.000171656    -0.041839764     C.2   1  noname    0.058112
    5   C5         0.950635187    -0.000292145     0.585614022     C.2   1  noname   -0.097452
    6   C6         1.005932518    -0.000135225     1.981381337     C.2   1  noname   -0.072277
    7   N7        -0.077126268     0.000137202     2.769485144     N.2   1  noname   -0.125307
    8   C8        -1.274298972     0.000220426     2.158971656     C.2   1  noname   -0.043405
    9   C9        -1.439123319     0.000060703     0.775991002     C.2   1  noname   -0.082537
   10   H10        0.443853826     0.000053744    -3.464161997       H   1  noname    0.143541
   11   H11        1.375908336    -0.884996501    -2.213530252       H   1  noname    0.137365
   12   H12        1.375153905     0.886003292    -2.213577981       H   1  noname    0.137397
   13   H13        1.876403692    -0.000536999     0.008545263       H   1  noname    0.120132
   14   H14        1.973425661    -0.000220962     2.492800470       H   1  noname    0.116741
   15   H15       -2.147667385     0.000436811     2.818341314       H   1  noname    0.118953
   16   H16       -2.428517728     0.000132031     0.316536595       H   1  noname    0.138457


@<TRIPOS>BOND
    1      1      2    1
    2      2      3    2
    3      2      4    1
    4      4      5    2
    5      5      6    1
    6      6      7    2
    7      7      8    1
    8      8      9    2
    9      9      4    1
   10      1     10    1
   11      1     11    1
   12      1     12    1
   13      5     13    1
   14      6     14    1
   15      8     15    1
   16      9     16    1
#
#	File Created by: Spartan'20 Export
#

@<TRIPOS>MOLECULE
M0112
14 14
SMALL
MULLIKEN_CHARGES


@<TRIPOS>ATOM
    1   C1         0.627904657     0.000077509    -2.024021354     C.3   1  noname   -0.378562
    2   C2        -0.614236482    -0.000097428    -1.169414130     C.2   1  noname    0.212277
    3   O3        -1.745040974    -0.000202166    -1.612847852     O.2   1  noname   -0.243100
    4   N4        -0.398766390    -0.000080744     0.236177541    N.am   1  noname    0.087898
    5   C5         0.802923161    -0.000119796     0.946334998     C.2   1  noname   -0.123555
    6   C6         0.447054381    -0.000031676     2.267052143     C.2   1  noname   -0.090198
    7   N7        -0.934107104     0.000107656     2.408436373     N.2   1  noname   -0.161614
    8   C8        -1.410217054     0.000096841     1.188131905     C.2   1  noname   -0.032675
    9   H9         1.244036242     0.888502829    -1.821784219       H   1  noname    0.147667
   10   H10        0.322313955    -0.000111578    -3.074896137       H   1  noname    0.152135
   11   H11        1.244440883    -0.888023001    -1.821603116       H   1  noname    0.147648
   12   H12        1.767377473    -0.000278746     0.453945162       H   1  noname    0.137042
   13   H13        1.100673620    -0.000050663     3.134678152       H   1  noname    0.123639
   14   H14       -2.454356368     0.000210962     0.889810534       H   1  noname    0.154032


@<TRIPOS>BOND
    1      1      2    1
    2      2      3    2
    3      2      4    am
    4      4      5    1
    5      5      6    2
    6      6      7    1
    7      7      8    2
    8      8      4    1
    9      1      9    1
   10      1     10    1
   11      1     11    1
   12      5     12    1
   13      6     13    1
   14      8     14    1
#
#	File Created by: Spartan'20 Export
#

@<TRIPOS>MOLECULE
M0113
15 14
SMALL
MULLIKEN_CHARGES


@<TRIPOS>ATOM
    1   C1         1.910902618    -0.533603732     0.283968151     C.3   1  noname   -0.382586
    2   C2         0.755330509     0.356591582     0.689369357     C.2   1  noname    0.128760
    3   S3         0.925091602     1.402950088     1.977386677     S.2   1  noname   -0.347611
    4   N4        -0.389501245     0.248019226    -0.037545369   N.pl3   1  noname    0.032176
    5   C5        -0.618809838    -0.787328886    -1.036112400     C.3   1  noname   -0.310872
    6   C6        -1.563107104     1.040778794     0.301439488     C.3   1  noname   -0.265120
    7   H7         2.195091005    -0.382526408    -0.770070784       H   1  noname    0.130080
    8   H8         2.772120348    -0.296658842     0.913757435       H   1  noname    0.147861
    9   H9         1.665331612    -1.599829746     0.415325566       H   1  noname    0.134916
   10   H10       -1.119291005    -0.350409308    -1.913123098       H   1  noname    0.134985
   11   H11       -1.269969404    -1.584852119    -0.635520497       H   1  noname    0.135234
   12   H12        0.319116986    -1.239525417    -1.365189032       H   1  noname    0.147062
   13   H13       -1.235589259     1.993363874     0.734149102       H   1  noname    0.153604
   14   H14       -2.188560236     0.523813714     1.049152976       H   1  noname    0.126696
   15   H15       -2.158156589     1.209217182    -0.606987571       H   1  noname    0.114397


@<TRIPOS>BOND
    1      1      2    1
    2      2      3    2
    3      2      4    1
    4      4      5    1
    5      4      6    1
    6      1      7    1
    7      1      8    1
    8      1      9    1
    9      5     10    1
   10      5     11    1
   11      5     12    1
   12      6     13    1
   13      6     14    1
   14      6     15    1
#
#	File Created by: Spartan'20 Export
#

@<TRIPOS>MOLECULE
M0114
12 11
SMALL
MULLIKEN_CHARGES


@<TRIPOS>ATOM
    1   C1         1.494478434     0.000002297    -1.174730643     C.3   1  noname   -0.330442
    2   C2         0.059634393    -0.000048364    -0.700301898     C.2   1  noname    0.185485
    3   S3        -1.223615542    -0.000109407    -1.754897025     S.2   1  noname   -0.342889
    4   N4        -0.095444883    -0.000003724     0.640270047   N.pl3   1  noname   -0.191712
    5   C5        -1.384355584     0.000029452     1.305494883     C.3   1  noname   -0.239856
    6   H6         2.224417562    -0.000202445    -0.349081456       H   1  noname    0.092143
    7   H7         1.672593134     0.882854561    -1.802799689       H   1  noname    0.142790
    8   H8         1.672540412    -0.882575350    -1.803195058       H   1  noname    0.142792
    9   H9         0.739267900    -0.000061664     1.218746287       H   1  noname    0.207940
   10   H10       -1.969433989     0.885751335     1.014966000       H   1  noname    0.142279
   11   H11       -1.969362419    -0.885821041     1.015210361       H   1  noname    0.142273
   12   H12       -1.220719417     0.000184348     2.390318190       H   1  noname    0.116906


@<TRIPOS>BOND
    1      1      2    1
    2      2      3    2
    3      2      4    1
    4      4      5    1
    5      1      6    1
    6      1      7    1
    7      1      8    1
    8      4      9    1
    9      5     10    1
   10      5     11    1
   11      5     12    1
#
#	File Created by: Spartan'20 Export
#

@<TRIPOS>MOLECULE
M0115
27 27
SMALL
MULLIKEN_CHARGES


@<TRIPOS>ATOM
    1   C1         0.690524339     1.264092467    -2.495453024     C.3   1  noname   -0.337723
    2   C2        -0.111174762     0.000326070    -2.139129446     C.3   1  noname    0.123529
    3   C3        -1.435431999     0.000097386    -2.917152445     C.3   1  noname   -0.300467
    4   C4         0.690433401    -1.263532560    -2.495327332     C.3   1  noname   -0.337830
    5   N5        -0.467728426     0.000700682    -0.702529706     N.2   1  noname   -0.090368
    6   C6         0.454394693    -0.000560364     0.180443816     C.2   1  noname   -0.149359
    7   C7         0.166691438    -0.000409349     1.623153144     C.2   1  noname    0.240711
    8   C8        -1.154086722    -0.000457772     2.104096364     C.2   1  noname   -0.177171
    9   C9        -1.401602327    -0.000126275     3.472661230     C.2   1  noname   -0.089299
   10   C10       -0.336526386     0.000278002     4.383328185     C.2   1  noname   -0.077084
   11   C11        0.978669866     0.000246577     3.915850072     C.2   1  noname   -0.118088
   12   C12        1.228018113    -0.000156647     2.542425078     C.2   1  noname   -0.149428
   13   H13        0.133055347     2.165934472    -2.204138599       H   1  noname    0.120971
   14   H14        1.665054101     1.281812822    -1.986182931       H   1  noname    0.107700
   15   H15        0.874756484     1.306128703    -3.578893789       H   1  noname    0.112438
   16   H16       -2.031234596    -0.888130577    -2.661884680       H   1  noname    0.109554
   17   H17       -2.031405654     0.888340488    -2.662410936       H   1  noname    0.109571
   18   H18       -1.254243375    -0.000283105    -4.002358767       H   1  noname    0.098968
   19   H19        0.874278987    -1.305980061    -3.578829126       H   1  noname    0.112464
   20   H20        1.665157350    -1.281316767    -1.986460424       H   1  noname    0.107729
   21   H21        0.132996943    -2.165280616    -2.203610123       H   1  noname    0.120970
   22   H22        1.534943843    -0.001828930    -0.073816796       H   1  noname    0.045877
   23   H23       -1.968229823    -0.000754826     1.377507640       H   1  noname    0.126878
   24   H24       -2.430227829    -0.000156965     3.838895455       H   1  noname    0.112333
   25   H25       -0.535020307     0.000610733     5.456842811       H   1  noname    0.112922
   26   H26        1.811182864     0.000565103     4.621813884       H   1  noname    0.111478
   27   H27        2.256754435    -0.000158693     2.171160444       H   1  noname    0.106971


@<TRIPOS>BOND
    1      1      2    1
    2      2      3    1
    3      2      4    1
    4      2      5    1
    5      5      6    2
    6      6      7    1
    7      7      8    2
    8      8      9    1
    9      9     10    2
   10     10     11    1
   11     11     12    2
   12     12      7    1
   13      1     13    1
   14      1     14    1
   15      1     15    1
   16      3     16    1
   17      3     17    1
   18      3     18    1
   19      4     19    1
   20      4     20    1
   21      4     21    1
   22      6     22    1
   23      8     23    1
   24      9     24    1
   25     10     25    1
   26     11     26    1
   27     12     27    1
#
#	File Created by: Spartan'20 Export
#

@<TRIPOS>MOLECULE
M0116
14 13
SMALL
MULLIKEN_CHARGES


@<TRIPOS>ATOM
    1   C1        -1.458017879     0.000016049    -0.126701991     C.3   1  noname   -0.326583
    2   C2        -0.000133469     0.000005764     0.315094424     C.3   1  noname    0.098948
    3   C3         0.729256585    -1.262357102    -0.127427769     C.3   1  noname   -0.326617
    4   C4         0.729222280     1.262390640    -0.127422397     C.3   1  noname   -0.326602
    5   Br5       -0.000887258    -0.000097703     2.333419557      Br   1  noname   -0.181021
    6   H6        -1.985385553     0.891430855     0.238107174       H   1  noname    0.129710
    7   H7        -1.498481791    -0.000097906    -1.229067027       H   1  noname    0.110575
    8   H8        -1.985460977    -0.891287991     0.238265638       H   1  noname    0.129716
    9   H9         1.764536309    -1.273977361     0.237881642       H   1  noname    0.129578
   10   H10        0.220140191    -2.165029254     0.234913085       H   1  noname    0.129416
   11   H11        0.750339162    -1.296638776    -1.229922483       H   1  noname    0.110699
   12   H12        0.220132222     2.165044861     0.234982382       H   1  noname    0.129415
   13   H13        0.750215407     1.296645890    -1.229924675       H   1  noname    0.110701
   14   H14        1.764524770     1.273952033     0.237802439       H   1  noname    0.129572


@<TRIPOS>BOND
    1      1      2    1
    2      2      3    1
    3      2      4    1
    4      2      5    1
    5      1      6    1
    6      1      7    1
    7      1      8    1
    8      3      9    1
    9      3     10    1
   10      3     11    1
   11      4     12    1
   12      4     13    1
   13      4     14    1
#
#	File Created by: Spartan'20 Export
#

@<TRIPOS>MOLECULE
M0117
15 14
SMALL
MULLIKEN_CHARGES


@<TRIPOS>ATOM
    1   C1        -1.461364534    -0.000011757    -0.293114117     C.3   1  noname   -0.348537
    2   C2         0.000158772     0.000074771     0.201086219     C.3   1  noname    0.192292
    3   C3         0.730894884     1.265724750    -0.294288449     C.3   1  noname   -0.348314
    4   C4         0.730837375    -1.265613336    -0.294299604     C.3   1  noname   -0.348348
    5   C5         0.000745338     0.000074594     1.672891204     C.1   1  noname   -0.304459
    6   N6         0.001113129    -0.000127903     2.836574645     N.1   1  noname    0.070477
    7   H7        -1.998374870     0.890692039     0.060359935       H   1  noname    0.131444
    8   H8        -1.471420538    -0.000192962    -1.393106520       H   1  noname    0.121945
    9   H9        -1.998257790    -0.890714774     0.060568962       H   1  noname    0.131451
   10   H10        0.738161107     1.270677980    -1.394298321       H   1  noname    0.121835
   11   H11        0.224952428     2.176030318     0.054537249       H   1  noname    0.131263
   12   H12        1.769846374     1.288545772     0.061471429       H   1  noname    0.131529
   13   H13        0.738066528    -1.270643389    -1.394318479       H   1  noname    0.121843
   14   H14        0.224849043    -2.175915255     0.054511998       H   1  noname    0.131267
   15   H15        1.769792756    -1.288600848     0.061423850       H   1  noname    0.131533


@<TRIPOS>BOND
    1      1      2    1
    2      2      3    1
    3      2      4    1
    4      2      5    1
    5      5      6    3
    6      1      7    1
    7      1      8    1
    8      1      9    1
    9      3     10    1
   10      3     11    1
   11      3     12    1
   12      4     13    1
   13      4     14    1
   14      4     15    1
#
#	File Created by: Spartan'20 Export
#

@<TRIPOS>MOLECULE
M0118
24 23
SMALL
MULLIKEN_CHARGES


@<TRIPOS>ATOM
    1   C1        -1.132405377     0.420227887     1.506920813     C.3   1  noname   -0.346704
    2   C2        -1.072261240     0.083550273     0.002013313     C.3   1  noname    0.054451
    3   C3        -1.277446369    -1.423835375    -0.262271163     C.3   1  noname   -0.348384
    4   C4        -2.236647126     0.827187961    -0.678289021     C.3   1  noname   -0.335737
    5   C5         0.243928082     0.601747030    -0.657728378     C.2   1  noname    0.177342
    6   O6         0.177818639     1.441523966    -1.559014675     O.2   1  noname   -0.328712
    7   N7         1.477258606     0.129688736    -0.247626953    N.am   1  noname   -0.003172
    8   C8         2.666357932     0.645373025    -0.911557198     C.3   1  noname   -0.299129
    9   C9         1.774884087    -0.852589472     0.777375796     C.3   1  noname   -0.292904
   10   H10       -0.979893787     1.498022773     1.663596631       H   1  noname    0.129241
   11   H11       -0.395829084    -0.113034827     2.120220704       H   1  noname    0.106200
   12   H12       -2.129458063     0.162128287     1.895487768       H   1  noname    0.116456
   13   H13       -1.243814280    -1.631264322    -1.342198877       H   1  noname    0.129842
   14   H14       -2.269595422    -1.729465897     0.104089836       H   1  noname    0.116836
   15   H15       -0.535894457    -2.071613723     0.221066866       H   1  noname    0.106487
   16   H16       -2.155924335     1.911882844    -0.535152991       H   1  noname    0.119691
   17   H17       -3.188626865     0.482079750    -0.247079773       H   1  noname    0.104344
   18   H18       -2.251377224     0.639953990    -1.759020550       H   1  noname    0.121752
   19   H19        2.357835111     1.346021916    -1.693439557       H   1  noname    0.168717
   20   H20        3.318292066     1.166498449    -0.190227128       H   1  noname    0.117247
   21   H21        3.241685300    -0.181607151    -1.360677786       H   1  noname    0.115916
   22   H22        0.872727133    -1.250115937     1.239847543       H   1  noname    0.126704
   23   H23        2.399449073    -0.406153630     1.571210819       H   1  noname    0.126698
   24   H24        2.338937599    -1.696206554     0.342453962       H   1  noname    0.125804


@<TRIPOS>BOND
    1      1      2    1
    2      2      3    1
    3      2      4    1
    4      2      5    1
    5      5      6    2
    6      5      7    am
    7      7      8    1
    8      7      9    1
    9      1     10    1
   10      1     11    1
   11      1     12    1
   12      3     13    1
   13      3     14    1
   14      3     15    1
   15      4     16    1
   16      4     17    1
   17      4     18    1
   18      8     19    1
   19      8     20    1
   20      8     21    1
   21      9     22    1
   22      9     23    1
   23      9     24    1
#
#	File Created by: Spartan'20 Export
#

@<TRIPOS>MOLECULE
M0119
50 51
SMALL
MULLIKEN_CHARGES


@<TRIPOS>ATOM
    1   C1        -0.402231075    -1.595273342     3.232241486     C.3   1  noname   -0.357171
    2   C2         0.257605268    -0.207287542     3.072495556     C.3   1  noname    0.070855
    3   C3        -0.746933527     0.936084000     3.330663617     C.3   1  noname   -0.330925
    4   C4         1.339171178    -0.091837581     4.166702770     C.3   1  noname   -0.344074
    5   C5         1.010041806    -0.115150502     1.696724813     C.2   1  noname    0.160947
    6   O6         2.240990065    -0.221496871     1.719470195     O.2   1  noname   -0.340445
    7   N7         0.354239352     0.085917909     0.482568364    N.am   1  noname    0.044365
    8   C8        -1.113929683    -0.065901680     0.355821082     C.3   1  noname   -0.015495
    9   C9        -1.945767403     1.235531540     0.132585763     C.3   1  noname   -0.232723
   10   C10       -2.563989428     1.499966668    -1.251202442     C.3   1  noname   -0.151118
   11   C11       -3.123075928     0.228491088    -1.895751491     C.3   1  noname   -0.149795
   12   C12       -2.051964895    -0.864180668    -1.957188791     C.3   1  noname   -0.176184
   13   C13       -1.590002529    -1.234765275    -0.545104037     C.3   1  noname   -0.192178
   14   C14        1.278983753     0.174530226    -0.675878644     C.3   1  noname    0.039524
   15   C15        0.900613908     1.230013774    -1.726826138     C.3   1  noname   -0.175660
   16   C16        1.591698342     0.944559778    -3.076217245     C.3   1  noname   -0.113747
   17   C17        2.980554334     0.336008795    -2.872554002     C.3   1  noname   -0.173254
   18   C18        2.882690752    -1.046087601    -2.184150497     C.3   1  noname   -0.178123
   19   C19        1.602270686    -1.177008849    -1.336061782     C.3   1  noname   -0.246372
   20   H20       -0.790718098    -1.701648111     4.256795593       H   1  noname    0.115557
   21   H21       -1.238863749    -1.775229100     2.542390365       H   1  noname    0.119181
   22   H22        0.340532841    -2.389543921     3.068708955       H   1  noname    0.130340
   23   H23       -1.680154861     0.864646042     2.761024524       H   1  noname    0.114719
   24   H24       -0.291371103     1.911446475     3.104801821       H   1  noname    0.117083
   25   H25       -1.022646075     0.936127957     4.396232477       H   1  noname    0.114635
   26   H26        1.860694565     0.872811706     4.107678672       H   1  noname    0.113326
   27   H27        0.859396367    -0.171609535     5.153897999       H   1  noname    0.104155
   28   H28        2.095060827    -0.879705919     4.072036313       H   1  noname    0.129541
   29   H29       -1.391167433    -0.389983194     1.356095430       H   1  noname    0.044478
   30   H30       -1.346816677     2.097465941     0.460561187       H   1  noname    0.115026
   31   H31       -2.789810064     1.172374069     0.841478993       H   1  noname    0.097155
   32   H32       -1.834554013     1.955747305    -1.937877339       H   1  noname    0.117072
   33   H33       -3.364582652     2.248217950    -1.135307531       H   1  noname    0.089661
   34   H34       -3.507710763     0.453608421    -2.902755843       H   1  noname    0.097860
   35   H35       -3.980738853    -0.141921744    -1.305252722       H   1  noname    0.077920
   36   H36       -1.207238603    -0.516747068    -2.575007432       H   1  noname    0.099869
   37   H37       -2.447758151    -1.764085243    -2.453987028       H   1  noname    0.094742
   38   H38       -0.820902265    -2.018604646    -0.560798652       H   1  noname    0.131586
   39   H39       -2.462219724    -1.683749614    -0.036021366       H   1  noname    0.093773
   40   H40        2.221428609     0.494497225    -0.213900857       H   1  noname    0.095889
   41   H41       -0.179511631     1.260437171    -1.885884647       H   1  noname    0.026615
   42   H42        1.188303497     2.225181623    -1.351067774       H   1  noname    0.086954
   43   H43        1.650266146     1.871708629    -3.666283771       H   1  noname    0.097259
   44   H44        0.976172132     0.244691976    -3.668019264       H   1  noname    0.073296
   45   H45        3.582463104     1.024404958    -2.256467891       H   1  noname    0.088937
   46   H46        3.509352748     0.245891721    -3.833514469       H   1  noname    0.097417
   47   H47        2.898924014    -1.846655543    -2.940522888       H   1  noname    0.088813
   48   H48        3.764063118    -1.202680705    -1.543606921       H   1  noname    0.103735
   49   H49        1.742841200    -1.938113656    -0.555229123       H   1  noname    0.112111
   50   H50        0.766300572    -1.511095038    -1.968535388       H   1  noname    0.098823


@<TRIPOS>BOND
    1      1      2    1
    2      2      3    1
    3      2      4    1
    4      2      5    1
    5      5      6    2
    6      5      7    am
    7      7      8    1
    8      8      9    1
    9      9     10    1
   10     10     11    1
   11     11     12    1
   12     12     13    1
   13      7     14    1
   14     14     15    1
   15     15     16    1
   16     16     17    1
   17     17     18    1
   18     18     19    1
   19     13      8    1
   20     19     14    1
   21      1     20    1
   22      1     21    1
   23      1     22    1
   24      3     23    1
   25      3     24    1
   26      3     25    1
   27      4     26    1
   28      4     27    1
   29      4     28    1
   30      8     29    1
   31      9     30    1
   32      9     31    1
   33     10     32    1
   34     10     33    1
   35     11     34    1
   36     11     35    1
   37     12     36    1
   38     12     37    1
   39     13     38    1
   40     13     39    1
   41     14     40    1
   42     15     41    1
   43     15     42    1
   44     16     43    1
   45     16     44    1
   46     17     45    1
   47     17     46    1
   48     18     47    1
   49     18     48    1
   50     19     49    1
   51     19     50    1
#
#	File Created by: Spartan'20 Export
#

@<TRIPOS>MOLECULE
M0120
16 15
SMALL
MULLIKEN_CHARGES


@<TRIPOS>ATOM
    1   C1        -1.129731018     0.000095704     0.921250804     C.3   1  noname   -0.332963
    2   C2        -0.004612240     0.000099769    -0.131682478     C.3   1  noname    0.140114
    3   C3         0.861314424     1.256034497     0.029109666     C.3   1  noname   -0.336811
    4   C4         0.861227197    -1.255887569     0.028992248     C.3   1  noname   -0.336988
    5   N5        -0.528761989     0.000048825    -1.516154467     N.3   1  noname   -0.455689
    6   H6        -0.731346401    -0.000331210     1.947938144       H   1  noname    0.101179
    7   H7        -1.766023109    -0.890723818     0.803523522       H   1  noname    0.104694
    8   H8        -1.765593065     0.891293166     0.804058988       H   1  noname    0.104711
    9   H9         1.660554468     1.266582287    -0.724969802       H   1  noname    0.123312
   10   H10        0.256542462     2.167938114    -0.098228691       H   1  noname    0.103688
   11   H11        1.317399260     1.293366215     1.029082365       H   1  noname    0.105457
   12   H12        1.317709334    -1.293243226     1.028773801       H   1  noname    0.105482
   13   H13        1.660151392    -1.266724142    -0.725422451       H   1  noname    0.123357
   14   H14        0.256266047    -2.167733221    -0.097983337       H   1  noname    0.103698
   15   H15       -1.131901152    -0.817441362    -1.649321223       H   1  noname    0.196999
   16   H16       -1.133195611     0.816625969    -1.648967091       H   1  noname    0.196984


@<TRIPOS>BOND
    1      1      2    1
    2      2      3    1
    3      2      4    1
    4      2      5    1
    5      1      6    1
    6      1      7    1
    7      1      8    1
    8      3      9    1
    9      3     10    1
   10      3     11    1
   11      4     12    1
   12      4     13    1
   13      4     14    1
   14      5     15    1
   15      5     16    1
#
#	File Created by: Spartan'20 Export
#

@<TRIPOS>MOLECULE
M0121
19 18
SMALL
MULLIKEN_CHARGES


@<TRIPOS>ATOM
    1   C1        -0.752293475    -0.026233683     1.391868892     C.3   1  noname   -0.364843
    2   C2        -0.369325561     0.072462172    -0.091871801     C.3   1  noname    0.140821
    3   C3        -0.293194272    -1.340279907    -0.706979446     C.3   1  noname   -0.349852
    4   C4        -1.432092418     0.892017527    -0.835179928     C.3   1  noname   -0.340005
    5   N5         0.896945093     0.829988418    -0.213386356     N.3   1  noname   -0.252632
    6   C6         2.090941315     0.236756246     0.380324422     C.3   1  noname   -0.300650
    7   H7        -1.751560835    -0.472123594     1.500444857       H   1  noname    0.108670
    8   H8        -0.765827840     0.973492505     1.849187416       H   1  noname    0.121228
    9   H9        -0.048069857    -0.656159277     1.954191388       H   1  noname    0.114966
   10   H10       -0.034108674    -1.284652106    -1.776158232       H   1  noname    0.103954
   11   H11        0.463166107    -1.961118772    -0.204921606       H   1  noname    0.118597
   12   H12       -1.257151397    -1.864589927    -0.622823662       H   1  noname    0.107842
   13   H13       -1.498820797     1.903801149    -0.411205040       H   1  noname    0.120426
   14   H14       -1.179590676     0.982612907    -1.904177515       H   1  noname    0.104720
   15   H15       -2.418519993     0.411503827    -0.764549663       H   1  noname    0.106574
   16   H16        1.067795572     1.004928092    -1.206524170       H   1  noname    0.173548
   17   H17        2.330937289    -0.791723773     0.040895329       H   1  noname    0.096063
   18   H18        1.997619470     0.212636758     1.475635388       H   1  noname    0.124047
   19   H19        2.953150948     0.876681436     0.145229727       H   1  noname    0.125819


@<TRIPOS>BOND
    1      1      2    1
    2      2      3    1
    3      2      4    1
    4      2      5    1
    5      5      6    1
    6      1      7    1
    7      1      8    1
    8      1      9    1
    9      3     10    1
   10      3     11    1
   11      3     12    1
   12      4     13    1
   13      4     14    1
   14      4     15    1
   15      5     16    1
   16      6     17    1
   17      6     18    1
   18      6     19    1
#
#	File Created by: Spartan'20 Export
#

@<TRIPOS>MOLECULE
M0122
18 17
SMALL
MULLIKEN_CHARGES


@<TRIPOS>ATOM
    1   C1        -1.174579588    -0.000273099    -1.453127232     C.3   1  noname   -0.306179
    2   C2        -0.140914921     0.001161292    -0.327636368     C.3   1  noname    0.186178
    3   C3         0.725906321     1.264976360    -0.405225876     C.3   1  noname   -0.366376
    4   C4         0.726781118    -1.262143645    -0.403030284     C.3   1  noname   -0.367385
    5   O5        -0.952954700     0.002435179     0.874369346     O.3   1  noname   -0.228472
    6   C6        -0.262238260    -0.002291402     2.112323856     C.3   1  noname   -0.226930
    7   H7        -0.680447815    -0.000664367    -2.434736747       H   1  noname    0.101457
    8   H8        -1.813541144     0.890497451    -1.379182425       H   1  noname    0.114205
    9   H9        -1.812303049    -0.891829376    -1.377881311       H   1  noname    0.114109
   10   H10        1.230175882     1.318694732    -1.380892677       H   1  noname    0.112125
   11   H11        1.507526145     1.278791244     0.367934777       H   1  noname    0.117003
   12   H12        0.100746006     2.162119087    -0.289321703       H   1  noname    0.122144
   13   H13        0.102717230    -2.159534235    -0.282936663       H   1  noname    0.122307
   14   H14        1.228856725    -1.318587362    -1.379666353       H   1  noname    0.112303
   15   H15        1.510166813    -1.272932637     0.368407102       H   1  noname    0.117481
   16   H16        0.362694705    -0.903929357     2.248963900       H   1  noname    0.104382
   17   H17        0.376011485     0.889973625     2.248782785       H   1  noname    0.103772
   18   H18       -1.034602954     0.003536510     2.892855873       H   1  noname    0.132258


@<TRIPOS>BOND
    1      1      2    1
    2      2      3    1
    3      2      4    1
    4      2      5    1
    5      5      6    1
    6      1      7    1
    7      1      8    1
    8      1      9    1
    9      3     10    1
   10      3     11    1
   11      3     12    1
   12      4     13    1
   13      4     14    1
   14      4     15    1
   15      6     16    1
   16      6     17    1
   17      6     18    1
#
#	File Created by: Spartan'20 Export
#

@<TRIPOS>MOLECULE
M0123
27 26
SMALL
MULLIKEN_CHARGES


@<TRIPOS>ATOM
    1   C1         1.441614978     0.992014230     1.009033211     C.3   1  noname   -0.361611
    2   C2         1.295499926    -0.008634444    -0.145009380     C.3   1  noname    0.158186
    3   C3         2.230479582     0.404607844    -1.289379131     C.3   1  noname   -0.316632
    4   C4         1.674383029    -1.424165427     0.326439997     C.3   1  noname   -0.345693
    5   O5         0.000234198     0.000691726    -0.796759238     O.3   1  noname   -0.215362
    6   C6        -1.295124604     0.009065196    -0.145187165     C.3   1  noname    0.158134
    7   C7        -2.229972723    -0.404790120    -1.289469306     C.3   1  noname   -0.316658
    8   C8        -1.675083248     1.424278513     0.326384194     C.3   1  noname   -0.345627
    9   C9        -1.441140614    -0.991783256     1.008704981     C.3   1  noname   -0.361681
   10   H10        2.485222416     0.989002901     1.357574258       H   1  noname    0.116503
   11   H11        0.811178352     0.731476873     1.870065735       H   1  noname    0.111792
   12   H12        1.194803767     2.011769264     0.683553339       H   1  noname    0.127193
   13   H13        1.966405908     1.409693922    -1.646197983       H   1  noname    0.110134
   14   H14        2.129796488    -0.296073103    -2.129817773       H   1  noname    0.115645
   15   H15        3.278129683     0.407867764    -0.955980465       H   1  noname    0.099144
   16   H16        2.746844044    -1.464566448     0.569580618       H   1  noname    0.108111
   17   H17        1.474916628    -2.151056405    -0.473222086       H   1  noname    0.115921
   18   H18        1.120404122    -1.728243359     1.222552240       H   1  noname    0.117391
   19   H19       -2.130194534     0.295922614    -2.129966472       H   1  noname    0.115651
   20   H20       -3.277526382    -0.408901608    -0.955730693       H   1  noname    0.099150
   21   H21       -1.965400083    -1.409747189    -1.646298628       H   1  noname    0.110127
   22   H22       -2.747308413     1.463244115     0.570870707       H   1  noname    0.108074
   23   H23       -1.477594151     2.151243164    -0.473673285       H   1  noname    0.115911
   24   H24       -1.120424077     1.729071981     1.221818275       H   1  noname    0.117397
   25   H25       -1.194639184    -2.011555133     0.683018463       H   1  noname    0.127198
   26   H26       -0.810747819    -0.731664902     1.869859388       H   1  noname    0.111817
   27   H27       -2.484757290    -0.988768711     1.357236197       H   1  noname    0.116531


@<TRIPOS>BOND
    1      1      2    1
    2      2      3    1
    3      2      4    1
    4      2      5    1
    5      5      6    1
    6      6      7    1
    7      6      8    1
    8      6      9    1
    9      1     10    1
   10      1     11    1
   11      1     12    1
   12      3     13    1
   13      3     14    1
   14      3     15    1
   15      4     16    1
   16      4     17    1
   17      4     18    1
   18      7     19    1
   19      7     20    1
   20      7     21    1
   21      8     22    1
   22      8     23    1
   23      8     24    1
   24      9     25    1
   25      9     26    1
   26      9     27    1
#
#	File Created by: Spartan'20 Export
#

@<TRIPOS>MOLECULE
M0124
28 27
SMALL
MULLIKEN_CHARGES


@<TRIPOS>ATOM
    1   C1         2.184497785     1.116262662     1.097430419     C.3   1  noname   -0.344540
    2   C2         1.778214554     0.041131931     0.085241637     C.3   1  noname    0.175511
    3   C3         1.733223554     0.596652819    -1.340250099     C.3   1  noname   -0.346307
    4   C4         2.702475764    -1.177049416     0.170904158     C.3   1  noname   -0.332506
    5   O5         0.507638911    -0.542096638     0.456977304     O.3   1  noname   -0.149394
    6   O6        -0.506969945     0.544255713     0.455857299     O.3   1  noname   -0.149556
    7   C7        -1.777420869    -0.040325677     0.084840191     C.3   1  noname    0.175644
    8   C8        -1.733114795    -0.596446786    -1.340493887     C.3   1  noname   -0.346455
    9   C9        -2.183040592    -1.115843157     1.096980942     C.3   1  noname   -0.344585
   10   C10       -2.703419231     1.176515819     0.170597379     C.3   1  noname   -0.332562
   11   H11        2.186456967     0.700021538     2.114587797       H   1  noname    0.111817
   12   H12        1.481088659     1.958312412     1.068086033       H   1  noname    0.131859
   13   H13        3.191466302     1.495282748     0.870022888       H   1  noname    0.104239
   14   H14        2.720161405     0.987071517    -1.627750035       H   1  noname    0.112811
   15   H15        1.450804467    -0.192469643    -2.051139402       H   1  noname    0.111479
   16   H16        1.002113572     1.411961817    -1.410486144       H   1  noname    0.124073
   17   H17        2.701692510    -1.593878977     1.187455560       H   1  noname    0.122302
   18   H18        3.728659764    -0.878772740    -0.085604215       H   1  noname    0.111161
   19   H19        2.380977714    -1.957832266    -0.532568849       H   1  noname    0.118456
   20   H20       -1.452538158     0.192429310    -2.052341871       H   1  noname    0.111494
   21   H21       -2.720019979    -0.988066079    -1.626589836       H   1  noname    0.112854
   22   H22       -1.001579282    -1.411342446    -1.411109757       H   1  noname    0.124050
   23   H23       -3.190225238    -1.494482204     0.869728760       H   1  noname    0.104287
   24   H24       -2.184784722    -0.700307496     2.114406383       H   1  noname    0.111855
   25   H25       -1.480194227    -1.958321652     1.066895649       H   1  noname    0.131848
   26   H26       -3.728990480     0.876433120    -0.086422418       H   1  noname    0.111167
   27   H27       -2.703979698     1.592866112     1.187325323       H   1  noname    0.122281
   28   H28       -2.383194713     1.958037660    -0.532581211       H   1  noname    0.118487


@<TRIPOS>BOND
    1      1      2    1
    2      2      3    1
    3      2      4    1
    4      2      5    1
    5      5      6    1
    6      6      7    1
    7      7      8    1
    8      7      9    1
    9      7     10    1
   10      1     11    1
   11      1     12    1
   12      1     13    1
   13      3     14    1
   14      3     15    1
   15      3     16    1
   16      4     17    1
   17      4     18    1
   18      4     19    1
   19      8     20    1
   20      8     21    1
   21      8     22    1
   22      9     23    1
   23      9     24    1
   24      9     25    1
   25     10     26    1
   26     10     27    1
   27     10     28    1
#
#	File Created by: Spartan'20 Export
#

@<TRIPOS>MOLECULE
M0125
23 23
SMALL
MULLIKEN_CHARGES


@<TRIPOS>ATOM
    1   C1         0.624778712     1.258958439    -1.609596696     C.3   1  noname   -0.350924
    2   C2        -0.103344836     0.000602955    -1.091324863     C.3   1  noname    0.080335
    3   C3         0.624835637    -1.258335062    -1.608236556     C.3   1  noname   -0.350945
    4   C4        -1.540070473    -0.000087759    -1.629589751     C.3   1  noname   -0.311787
    5   C5        -0.085332419     0.001209025     0.443020455     C.2   1  noname    0.214996
    6   C6         1.132841787     0.000497107     1.146295523     C.2   1  noname   -0.192585
    7   C7         1.123249497    -0.000625668     2.536982141     C.2   1  noname   -0.099093
    8   C8        -0.104522288    -0.000804160     3.201941959     C.2   1  noname   -0.066287
    9   C9        -1.262690073     0.000295086     2.427565660     C.2   1  noname   -0.091669
   10   N10       -1.263969440     0.001202508     1.085781719     N.2   1  noname   -0.147843
   11   H11        1.675462996     1.288882590    -1.287117165       H   1  noname    0.108228
   12   H12        0.611045809     1.273421283    -2.710313050       H   1  noname    0.113693
   13   H13        0.131296033     2.173954489    -1.250778355       H   1  noname    0.121763
   14   H14        0.610514742    -1.274475189    -2.708933430       H   1  noname    0.113705
   15   H15        0.131641840    -2.172924625    -1.247924358       H   1  noname    0.121783
   16   H16        1.675679775    -1.287867600    -1.286277624       H   1  noname    0.108216
   17   H17       -1.518264995    -0.000789652    -2.730236589       H   1  noname    0.103539
   18   H18       -2.096313355     0.883515578    -1.289759567       H   1  noname    0.111221
   19   H19       -2.095578291    -0.883819125    -1.288787074       H   1  noname    0.111206
   20   H20        2.080678534     0.000377385     0.605825805       H   1  noname    0.105329
   21   H21        2.060830015    -0.001556801     3.096454131       H   1  noname    0.111568
   22   H22       -0.163930381    -0.001856570     4.291207523       H   1  noname    0.109431
   23   H23       -2.248838826     0.000225767     2.903800162       H   1  noname    0.103870


@<TRIPOS>BOND
    1      1      2    1
    2      2      3    1
    3      2      4    1
    4      2      5    1
    5      5      6    2
    6      6      7    1
    7      7      8    2
    8      8      9    1
    9      9     10    2
   10     10      5    1
   11      1     11    1
   12      1     12    1
   13      1     13    1
   14      3     14    1
   15      3     15    1
   16      3     16    1
   17      4     17    1
   18      4     18    1
   19      4     19    1
   20      6     20    1
   21      7     21    1
   22      8     22    1
   23      9     23    1
#
#	File Created by: Spartan'20 Export
#

@<TRIPOS>MOLECULE
M0126
23 23
SMALL
MULLIKEN_CHARGES


@<TRIPOS>ATOM
    1   C1         0.729807041     1.259275776    -1.460324832     C.3   1  noname   -0.344210
    2   C2        -0.013616505     0.000470815    -0.964256266     C.3   1  noname    0.074406
    3   C3        -1.424883012     0.000225081    -1.569034389     C.3   1  noname   -0.378302
    4   C4         0.729336207    -1.259046447    -1.459347608     C.3   1  noname   -0.344248
    5   C5        -0.035155936     0.000837748     0.567688051     C.2   1  noname    0.162696
    6   C6         1.163061194     0.000694597     1.299301301     C.2   1  noname   -0.142072
    7   C7         1.130239876    -0.000196841     2.692022419     C.2   1  noname   -0.076734
    8   N8        -0.000877407    -0.000932668     3.415560620     N.2   1  noname   -0.132325
    9   C9        -1.144068695    -0.000664702     2.718701023     C.2   1  noname   -0.076404
   10   C10       -1.213226691     0.000186031     1.322319057     C.2   1  noname   -0.120338
   11   H11        0.770656746     1.263278447    -2.560347369       H   1  noname    0.114903
   12   H12        1.761661905     1.297810929    -1.084441455       H   1  noname    0.115345
   13   H13        0.215301185     2.174391823    -1.133003594       H   1  noname    0.121934
   14   H14       -1.997697194    -0.891249803    -1.273498659       H   1  noname    0.125768
   15   H15       -1.352817558    -0.000307902    -2.666352282       H   1  noname    0.120087
   16   H16       -1.997916167     0.891780044    -1.274228256       H   1  noname    0.125773
   17   H17        1.761264027    -1.297740639    -1.083690986       H   1  noname    0.115346
   18   H18        0.214592056    -2.173692456    -1.131015783       H   1  noname    0.121962
   19   H19        0.769854638    -1.264272212    -2.559394547       H   1  noname    0.114906
   20   H20        2.128531474     0.000924257     0.790039426       H   1  noname    0.102760
   21   H21        2.065059560    -0.000490527     3.261765958       H   1  noname    0.106667
   22   H22       -2.067043809    -0.001326490     3.308240725       H   1  noname    0.107599
   23   H23       -2.192062933     0.000045139     0.843297443       H   1  noname    0.111005


@<TRIPOS>BOND
    1      1      2    1
    2      2      3    1
    3      2      4    1
    4      2      5    1
    5      5      6    2
    6      6      7    1
    7      7      8    2
    8      8      9    1
    9      9     10    2
   10     10      5    1
   11      1     11    1
   12      1     12    1
   13      1     13    1
   14      3     14    1
   15      3     15    1
   16      3     16    1
   17      4     17    1
   18      4     18    1
   19      4     19    1
   20      6     20    1
   21      7     21    1
   22      9     22    1
   23     10     23    1
#
#	File Created by: Spartan'20 Export
#

@<TRIPOS>MOLECULE
M0127
21 20
SMALL
MULLIKEN_CHARGES


@<TRIPOS>ATOM
    1   C1        -1.834663444    -0.241382629    -0.941520444     C.3   1  noname   -0.358815
    2   C2        -1.127883072     0.007190228     0.403139785     C.3   1  noname   -0.040047
    3   C3        -1.989077804     0.871699014     1.326025823     C.3   1  noname   -0.347852
    4   C4         0.217282859     0.701247366     0.139395602     C.2   1  noname    0.194317
    5   O5         0.294237131     1.932078283     0.143705658     O.2   1  noname   -0.337793
    6   N6         1.314825414    -0.086570502    -0.138452597    N.am   1  noname   -0.002456
    7   C7         1.337962339    -1.536365697    -0.201194608     C.3   1  noname   -0.305599
    8   C8         2.594679495     0.554429998    -0.395215821     C.3   1  noname   -0.297936
    9   H9        -1.998660013     0.715152663    -1.459039878       H   1  noname    0.131262
   10   H10       -1.247348676    -0.889404013    -1.608711153       H   1  noname    0.115730
   11   H11       -2.814316692    -0.715291081    -0.780881010       H   1  noname    0.118855
   12   H12       -0.961954819    -0.960398759     0.902263867       H   1  noname    0.072883
   13   H13       -2.951628039     0.374640558     1.517241789       H   1  noname    0.108847
   14   H14       -1.491016336     1.046091925     2.289843410       H   1  noname    0.115813
   15   H15       -2.178567934     1.851699701     0.869264754       H   1  noname    0.129948
   16   H16        1.811447121    -1.858234691    -1.143907576       H   1  noname    0.127061
   17   H17        0.331415069    -1.960038219    -0.169845452       H   1  noname    0.144413
   18   H18        1.924770448    -1.963812125     0.631364344       H   1  noname    0.127829
   19   H19        2.956402043     0.302103728    -1.405836700       H   1  noname    0.117792
   20   H20        3.348669008     0.216906878     0.335553047       H   1  noname    0.117040
   21   H21        2.463425903     1.638257372    -0.313192840       H   1  noname    0.167969


@<TRIPOS>BOND
    1      1      2    1
    2      2      3    1
    3      2      4    1
    4      4      5    2
    5      4      6    am
    6      6      7    1
    7      6      8    1
    8      1      9    1
    9      1     10    1
   10      1     11    1
   11      2     12    1
   12      3     13    1
   13      3     14    1
   14      3     15    1
   15      7     16    1
   16      7     17    1
   17      7     18    1
   18      8     19    1
   19      8     20    1
   20      8     21    1
#
#	File Created by: Spartan'20 Export
#

@<TRIPOS>MOLECULE
M0128
47 48
SMALL
MULLIKEN_CHARGES


@<TRIPOS>ATOM
    1   C1        -0.942464012     4.094199818    -1.228476542     C.3   1  noname   -0.353390
    2   C2        -0.170071833     3.032688772    -0.439144686     C.3   1  noname   -0.015216
    3   C3         0.251935065     3.575225025     0.937267143     C.3   1  noname   -0.363471
    4   C4        -1.060567986     1.793304943    -0.238554674     C.2   1  noname    0.195363
    5   O5        -2.281001163     1.943636450    -0.114443084     O.2   1  noname   -0.346957
    6   N6        -0.479693662     0.540051700    -0.184972602    N.am   1  noname    0.057543
    7   C7        -1.434019681    -0.584912753    -0.016893225     C.3   1  noname    0.034151
    8   C8        -1.752127261    -0.870773413     1.478882295     C.3   1  noname   -0.245602
    9   C9        -2.092382159    -2.344806072     1.731990773     C.3   1  noname   -0.110539
   10   C10       -3.013181996    -2.866919699     0.628132583     C.3   1  noname   -0.159830
   11   C11       -2.297164060    -2.836838730    -0.743660193     C.3   1  noname   -0.177008
   12   C12       -1.093600676    -1.872052793    -0.778756158     C.3   1  noname   -0.201030
   13   C13        0.983229402     0.350829043    -0.176940050     C.3   1  noname   -0.063653
   14   C14        1.518916691    -0.513451362     0.977314292     C.3   1  noname   -0.234010
   15   C15        3.053855894    -0.436662431     1.026565066     C.3   1  noname   -0.162045
   16   C16        3.714724268    -0.642118686    -0.361915131     C.3   1  noname   -0.177104
   17   C17        2.701063672    -1.127642895    -1.400205871     C.3   1  noname   -0.123201
   18   C18        1.559906982    -0.113860840    -1.551342753     C.3   1  noname   -0.166377
   19   H19       -1.869796660     4.357065222    -0.703874816       H   1  noname    0.132675
   20   H20       -0.327998260     4.998848432    -1.348301384       H   1  noname    0.107711
   21   H21       -1.216950898     3.727574848    -2.227700425       H   1  noname    0.113303
   22   H22        0.728467337     2.772274276    -1.019401801       H   1  noname    0.074446
   23   H23        0.838918449     2.844441720     1.514133113       H   1  noname    0.113352
   24   H24        0.858589304     4.485981945     0.825990865       H   1  noname    0.116967
   25   H25       -0.640839666     3.827804636     1.527970118       H   1  noname    0.131103
   26   H26       -2.359088470    -0.194335662    -0.466057133       H   1  noname    0.098890
   27   H27       -0.906956152    -0.564038482     2.108038436       H   1  noname    0.083518
   28   H28       -2.599816587    -0.231380577     1.769343913       H   1  noname    0.117713
   29   H29       -2.558746325    -2.460011360     2.722470528       H   1  noname    0.097909
   30   H30       -1.168725742    -2.948974947     1.753267511       H   1  noname    0.069201
   31   H31       -3.362957613    -3.885596362     0.853451965       H   1  noname    0.096157
   32   H32       -3.913673568    -2.231300316     0.595952331       H   1  noname    0.088470
   33   H33       -1.940764452    -3.844855795    -1.007463726       H   1  noname    0.094045
   34   H34       -3.013569126    -2.549601541    -1.529252059       H   1  noname    0.097496
   35   H35       -0.856460015    -1.645961912    -1.827255088       H   1  noname    0.092441
   36   H36       -0.207754758    -2.369157444    -0.355000220       H   1  noname    0.079964
   37   H37        1.402041630     1.343108228     0.023257706       H   1  noname    0.078142
   38   H38        1.105817911    -0.153494469     1.930487025       H   1  noname    0.101234
   39   H39        1.199181453    -1.560454170     0.873234651       H   1  noname    0.098407
   40   H40        3.348173167     0.543074927     1.436105032       H   1  noname    0.095690
   41   H41        3.420033447    -1.188179985     1.742158474       H   1  noname    0.100765
   42   H42        4.147290115     0.307878312    -0.717832222       H   1  noname    0.083689
   43   H43        4.554726819    -1.348710578    -0.287442245       H   1  noname    0.098349
   44   H44        2.295037650    -2.107066545    -1.094399552       H   1  noname    0.080362
   45   H45        3.190750981    -1.289441177    -2.372859675       H   1  noname    0.100560
   46   H46        0.756245482    -0.527841247    -2.171505978       H   1  noname    0.100657
   47   H47        1.931467059     0.772453946    -2.092362526       H   1  noname    0.086013


@<TRIPOS>BOND
    1      1      2    1
    2      2      3    1
    3      2      4    1
    4      4      5    2
    5      4      6    am
    6      6      7    1
    7      7      8    1
    8      8      9    1
    9      9     10    1
   10     10     11    1
   11     11     12    1
   12      6     13    1
   13     13     14    1
   14     14     15    1
   15     15     16    1
   16     16     17    1
   17     17     18    1
   18     12      7    1
   19     18     13    1
   20      1     19    1
   21      1     20    1
   22      1     21    1
   23      2     22    1
   24      3     23    1
   25      3     24    1
   26      3     25    1
   27      7     26    1
   28      8     27    1
   29      8     28    1
   30      9     29    1
   31      9     30    1
   32     10     31    1
   33     10     32    1
   34     11     33    1
   35     11     34    1
   36     12     35    1
   37     12     36    1
   38     13     37    1
   39     14     38    1
   40     14     39    1
   41     15     40    1
   42     15     41    1
   43     16     42    1
   44     16     43    1
   45     17     44    1
   46     17     45    1
   47     18     46    1
   48     18     47    1
#
#	File Created by: Spartan'20 Export
#

@<TRIPOS>MOLECULE
M0129
28 29
SMALL
MULLIKEN_CHARGES


@<TRIPOS>ATOM
    1   C1        -2.740795984     0.898025373    -0.760685801     C.3   1  noname   -0.383208
    2   C2        -2.015676403     0.189606402     0.389173880     C.3   1  noname   -0.000658
    3   C3        -2.590778922    -1.215359018     0.607343222     C.3   1  noname   -0.395758
    4   C4        -0.481701601     0.141607533     0.217944940     C.3   1  noname    0.402204
    5   C5         0.027260450    -0.664270997    -0.994240784     C.3   1  noname   -0.213220
    6   C6         1.561314652    -0.497180312    -1.086639243     C.3   1  noname   -0.111033
    7   C7         2.035993254     0.401383505     0.068329917     C.3   1  noname    0.242038
    8   C8         1.575594892    -0.174861704     1.382171752     C.2   1  noname   -0.179953
    9   C9         0.246014594    -0.310793167     1.461094861     C.2   1  noname   -0.244002
   10   O10        1.372215975     1.696677069    -0.085854642     O.3   1  noname   -0.140591
   11   O11       -0.108271430     1.540685543    -0.004341273     O.3   1  noname   -0.158465
   12   C12        3.514645882     0.739970585     0.004891382     C.3   1  noname   -0.389931
   13   H13       -2.632398689     0.346120354    -1.706759352       H   1  noname    0.106099
   14   H14       -2.360820142     1.915558514    -0.913827047       H   1  noname    0.147431
   15   H15       -3.816574536     0.959111844    -0.539649302       H   1  noname    0.114646
   16   H16       -2.183958094     0.778215026     1.308483187       H   1  noname    0.073038
   17   H17       -2.533014206    -1.816120118    -0.312535696       H   1  noname    0.119202
   18   H18       -3.651496973    -1.145751408     0.887981076       H   1  noname    0.122128
   19   H19       -2.068959011    -1.764673581     1.403933170       H   1  noname    0.122060
   20   H20       -0.460216612    -0.281104221    -1.901144155       H   1  noname    0.087894
   21   H21       -0.253573718    -1.720638073    -0.882123435       H   1  noname    0.090965
   22   H22        1.846953052    -0.013255639    -2.032468730       H   1  noname    0.079261
   23   H23        2.080650491    -1.465616178    -1.034416078       H   1  noname    0.079346
   24   H24        2.272970058    -0.364823948     2.200411126       H   1  noname    0.094638
   25   H25       -0.291417379    -0.625881738     2.357288218       H   1  noname    0.100599
   26   H26        3.757357337     1.233399391    -0.945734608       H   1  noname    0.129208
   27   H27        4.102375093    -0.186021839     0.079787380       H   1  noname    0.119151
   28   H28        3.796307974     1.405990804     0.831586035       H   1  noname    0.129766


@<TRIPOS>BOND
    1      1      2    1
    2      2      3    1
    3      2      4    1
    4      4      5    1
    5      5      6    1
    6      6      7    1
    7      7      8    1
    8      8      9    2
    9      7     10    1
   10     10     11    1
   11      7     12    1
   12      9      4    1
   13     11      4    1
   14      1     13    1
   15      1     14    1
   16      1     15    1
   17      2     16    1
   18      3     17    1
   19      3     18    1
   20      3     19    1
   21      5     20    1
   22      5     21    1
   23      6     22    1
   24      6     23    1
   25      8     24    1
   26      9     25    1
   27     12     26    1
   28     12     27    1
   29     12     28    1
#
#	File Created by: Spartan'20 Export
#

@<TRIPOS>MOLECULE
M0130
34 33
SMALL
MULLIKEN_CHARGES


@<TRIPOS>ATOM
    1   C1         3.000319501    -1.232296901    -0.816158934     C.3   1  noname   -0.356751
    2   C2         1.825793935    -0.964327234     0.128488514     C.3   1  noname    0.046781
    3   C3         2.287538233    -0.259191319     1.403268406     C.3   1  noname   -0.335851
    4   C4         0.737758947    -0.173466717    -0.632230237     C.3   1  noname   -0.199237
    5   N5        -0.472985678     0.168692485     0.131536651     N.3   1  noname   -0.030653
    6   C6        -0.810484301     1.610399833     0.048086674     C.3   1  noname   -0.012498
    7   C7         0.259832046     2.462689007     0.740909907     C.3   1  noname   -0.304446
    8   C8        -2.164947746     1.940933114     0.682938295     C.3   1  noname   -0.372251
    9   C9        -1.611338009    -0.739803903    -0.142389123     C.3   1  noname   -0.055254
   10   C10       -2.181687341    -0.654429795    -1.572005518     C.3   1  noname   -0.338414
   11   C11       -1.277120644    -2.189392633     0.212728124     C.3   1  noname   -0.339874
   12   H12        2.675774121    -1.749805138    -1.732281019       H   1  noname    0.110985
   13   H13        3.483082866    -0.287987906    -1.117294152       H   1  noname    0.103973
   14   H14        3.766955894    -1.855172613    -0.332233269       H   1  noname    0.117048
   15   H15        1.398964273    -1.937679966     0.421991877       H   1  noname    0.063641
   16   H16        1.431848183    -0.050313798     2.059573575       H   1  noname    0.114269
   17   H17        3.008701324    -0.879157915     1.956890496       H   1  noname    0.111471
   18   H18        2.780900396     0.697830326     1.169490226       H   1  noname    0.090594
   19   H19        1.199881604     0.754260574    -1.008730243       H   1  noname    0.102334
   20   H20        0.477453882    -0.747566114    -1.541942552       H   1  noname    0.082739
   21   H21       -0.854919438     1.932006779    -1.019397492       H   1  noname    0.052272
   22   H22        0.008122557     3.528795911     0.642172991       H   1  noname    0.110932
   23   H23        0.311722974     2.212352349     1.810737314       H   1  noname    0.101356
   24   H24        1.260774934     2.323515564     0.313815282       H   1  noname    0.109174
   25   H25       -2.206151192     1.574457343     1.720703840       H   1  noname    0.118202
   26   H26       -3.017485593     1.522607132     0.131783471       H   1  noname    0.131159
   27   H27       -2.294943427     3.031887613     0.705936966       H   1  noname    0.113527
   28   H28       -2.408441182    -0.433181097     0.550177898       H   1  noname    0.086682
   29   H29       -3.087233812    -1.273118494    -1.657612314       H   1  noname    0.112647
   30   H30       -2.452422724     0.376528424    -1.841225084       H   1  noname    0.119473
   31   H31       -1.463569812    -1.020214619    -2.320744678       H   1  noname    0.108103
   32   H32       -2.188473646    -2.801929636     0.148894283       H   1  noname    0.114647
   33   H33       -0.880140905    -2.261875601     1.234735940       H   1  noname    0.121652
   34   H34       -0.543080223    -2.626045056    -0.480616116       H   1  noname    0.114422


@<TRIPOS>BOND
    1      1      2    1
    2      2      3    1
    3      2      4    1
    4      4      5    1
    5      5      6    1
    6      6      7    1
    7      6      8    1
    8      5      9    1
    9      9     10    1
   10      9     11    1
   11      1     12    1
   12      1     13    1
   13      1     14    1
   14      2     15    1
   15      3     16    1
   16      3     17    1
   17      3     18    1
   18      4     19    1
   19      4     20    1
   20      6     21    1
   21      7     22    1
   22      7     23    1
   23      7     24    1
   24      8     25    1
   25      8     26    1
   26      8     27    1
   27      9     28    1
   28     10     29    1
   29     10     30    1
   30     10     31    1
   31     11     32    1
   32     11     33    1
   33     11     34    1
#
#	File Created by: Spartan'20 Export
#

@<TRIPOS>MOLECULE
M0131
11 10
SMALL
MULLIKEN_CHARGES


@<TRIPOS>ATOM
    1   C1        -0.131191855     1.270687198    -0.243621206     C.3   1  noname   -0.323815
    2   C2         0.397040740     0.000013879     0.399583405     C.3   1  noname    0.018585
    3   C3        -0.131220713    -1.270653273    -0.243616336     C.3   1  noname   -0.323833
    4   Cl4       -0.041690597    -0.000027937     2.174529982      Cl   1  noname   -0.171869
    5   H5         0.259940216     2.164750290     0.258703866       H   1  noname    0.131528
    6   H6         0.174955929     1.302070405    -1.301399916       H   1  noname    0.111219
    7   H7        -1.229461734     1.299586062    -0.200753360       H   1  noname    0.118437
    8   H8         1.496323082    -0.000001701     0.399950816       H   1  noname    0.114518
    9   H9        -1.229487984    -1.299671493    -0.200577242       H   1  noname    0.118445
   10   H10        0.174756267    -1.302055071    -1.301449453       H   1  noname    0.111219
   11   H11        0.260036649    -2.164698359     0.258649445       H   1  noname    0.131527


@<TRIPOS>BOND
    1      1      2    1
    2      2      3    1
    3      2      4    1
    4      1      5    1
    5      1      6    1
    6      1      7    1
    7      2      8    1
    8      3      9    1
    9      3     10    1
   10      3     11    1
#
#	File Created by: Spartan'20 Export
#

@<TRIPOS>MOLECULE
M0132
13 12
SMALL
MULLIKEN_CHARGES


@<TRIPOS>ATOM
    1   C1         1.138454714     0.457832276     0.546511267     C.3   1  noname   -0.340727
    2   C2        -0.028679161     0.182411180    -0.412234333     C.3   1  noname    0.050596
    3   C3        -0.395614557    -1.300704040    -0.430201677     C.3   1  noname   -0.341326
    4   N4        -1.241864468     0.965402026    -0.121347885     N.3   1  noname   -0.452226
    5   H5         0.863932920     0.177834096     1.577005463       H   1  noname    0.097580
    6   H6         1.406113198     1.525904067     0.546757682       H   1  noname    0.108841
    7   H7         2.038485123    -0.114280178     0.269689771       H   1  noname    0.102938
    8   H8         0.286475039     0.469914461    -1.431818465       H   1  noname    0.077458
    9   H9        -0.731574841    -1.626913352     0.568846156       H   1  noname    0.098226
   10   H10       -1.210493692    -1.492813419    -1.141469203       H   1  noname    0.128917
   11   H11        0.470056591    -1.919635429    -0.707143245       H   1  noname    0.109882
   12   H12       -1.009057265     1.961239670    -0.075606297       H   1  noname    0.199402
   13   H13       -1.586233601     0.713808642     0.811010766       H   1  noname    0.196315


@<TRIPOS>BOND
    1      1      2    1
    2      2      3    1
    3      2      4    1
    4      1      5    1
    5      1      6    1
    6      1      7    1
    7      2      8    1
    8      3      9    1
    9      3     10    1
   10      3     11    1
   11      4     12    1
   12      4     13    1
#
#	File Created by: Spartan'20 Export
#

@<TRIPOS>MOLECULE
M0133
36 35
SMALL
MULLIKEN_CHARGES


@<TRIPOS>ATOM
    1   C1        -1.206684018    -1.990400725    -0.203598571     C.3   1  noname   -0.352706
    2   C2        -1.136477641    -0.577361749    -0.796206648     C.3   1  noname   -0.041318
    3   C3        -0.654087719    -0.541885566    -2.253990307     C.3   1  noname   -0.331885
    4   N4        -0.520599330     0.469693084     0.058683201   N.pl3   1  noname    0.012446
    5   C5        -1.459529387     1.570858629     0.418705252     C.3   1  noname   -0.005247
    6   C6        -2.649554196     1.044238682     1.226833787     C.3   1  noname   -0.324978
    7   C7        -1.903865964     2.406655728    -0.785264835     C.3   1  noname   -0.357316
    8   C8         0.826457613     0.771258220     0.281267720     C.2   1  noname    0.157794
    9   O9         1.144676939     1.940250592     0.519687358     O.2   1  noname   -0.324710
   10   C10        1.928120517    -0.326173915     0.495987178     C.3   1  noname    0.125714
   11   C11        3.245319064     0.414912254     0.794018526     C.3   1  noname   -0.327009
   12   C12        2.207814634    -1.272880544    -0.680251552     C.3   1  noname   -0.387349
   13   C13        1.537601530    -1.122912892     1.760144812     C.3   1  noname   -0.372008
   14   H14       -1.894737999    -2.597951459    -0.810658982       H   1  noname    0.118352
   15   H15       -1.597020789    -1.959651483     0.822818313       H   1  noname    0.129898
   16   H16       -0.242688296    -2.511553571    -0.186176360       H   1  noname    0.113799
   17   H17       -2.187705257    -0.259748734    -0.843389968       H   1  noname    0.083323
   18   H18       -1.289159667    -1.199016421    -2.867287417       H   1  noname    0.111452
   19   H19        0.381927829    -0.874952844    -2.373966098       H   1  noname    0.124505
   20   H20       -0.729867276     0.477252023    -2.655681170       H   1  noname    0.131245
   21   H21       -0.869587280     2.226929051     1.069435957       H   1  noname    0.104817
   22   H22       -3.205228093     1.893546192     1.649905845       H   1  noname    0.123339
   23   H23       -3.363361749     0.467179933     0.617987740       H   1  noname    0.101889
   24   H24       -2.310353078     0.410059920     2.058001299       H   1  noname    0.120095
   25   H25       -2.491590169     1.815508220    -1.505423704       H   1  noname    0.105330
   26   H26       -1.031750523     2.830784743    -1.300463252       H   1  noname    0.141284
   27   H27       -2.542874461     3.236267135    -0.448005780       H   1  noname    0.114329
   28   H28        3.149529986     1.063911320     1.672208720       H   1  noname    0.123853
   29   H29        3.546904152     1.047670387    -0.051458096       H   1  noname    0.113728
   30   H30        4.039341829    -0.324480840     0.979876227       H   1  noname    0.102051
   31   H31        1.368436548    -1.926346797    -0.932153670       H   1  noname    0.108532
   32   H32        2.497557182    -0.710286986    -1.580049293       H   1  noname    0.128776
   33   H33        3.054471681    -1.925258140    -0.416219939       H   1  noname    0.118174
   34   H34        0.646459292    -1.743261650     1.613992844       H   1  noname    0.122567
   35   H35        2.368633611    -1.784138293     2.051299100       H   1  noname    0.111340
   36   H36        1.343470490    -0.438713504     2.599391766       H   1  noname    0.125933


@<TRIPOS>BOND
    1      1      2    1
    2      2      3    1
    3      2      4    1
    4      4      5    1
    5      5      6    1
    6      5      7    1
    7      4      8    1
    8      8      9    2
    9      8     10    1
   10     10     11    1
   11     10     12    1
   12     10     13    1
   13      1     14    1
   14      1     15    1
   15      1     16    1
   16      2     17    1
   17      3     18    1
   18      3     19    1
   19      3     20    1
   20      5     21    1
   21      6     22    1
   22      6     23    1
   23      6     24    1
   24      7     25    1
   25      7     26    1
   26      7     27    1
   27     11     28    1
   28     11     29    1
   29     11     30    1
   30     12     31    1
   31     12     32    1
   32     12     33    1
   33     13     34    1
   34     13     35    1
   35     13     36    1
#
#	File Created by: Spartan'20 Export
#

@<TRIPOS>MOLECULE
M0134
19 18
SMALL
MULLIKEN_CHARGES


@<TRIPOS>ATOM
    1   C1        -1.182325932     1.191333922     0.163335278     C.3   1  noname   -0.385657
    2   C2        -0.635537781    -0.082591364    -0.506491426     C.3   1  noname    0.043443
    3   C3        -1.500768459    -1.295337945    -0.156258991     C.3   1  noname   -0.343673
    4   N4         0.791915977    -0.363843617    -0.251140565     N.3   1  noname   -0.077098
    5   C5         1.684331673     0.577159394    -0.906707460     C.3   1  noname   -0.296360
    6   C6         1.145746956    -0.530812965     1.150200306     C.3   1  noname   -0.305959
    7   H7        -2.216199577     1.377683548    -0.161871874       H   1  noname    0.114459
    8   H8        -1.193761187     1.093618668     1.259439131       H   1  noname    0.116129
    9   H9        -0.587830552     2.079366306    -0.094947538       H   1  noname    0.122829
   10   H10       -0.699717252     0.060273369    -1.599705724       H   1  noname    0.067305
   11   H11       -1.086841966    -2.207745130    -0.607390251       H   1  noname    0.121733
   12   H12       -2.525180416    -1.151410064    -0.529219116       H   1  noname    0.111763
   13   H13       -1.571214635    -1.446530177     0.931652522       H   1  noname    0.105908
   14   H14        1.424668741     0.656714041    -1.972976409       H   1  noname    0.118062
   15   H15        2.719793141     0.209927089    -0.836307959       H   1  noname    0.120591
   16   H16        1.666537384     1.601982576    -0.470869951       H   1  noname    0.088953
   17   H17        0.495336710    -1.276727531     1.626088260       H   1  noname    0.121428
   18   H18        2.180028850    -0.900937296     1.217604897       H   1  noname    0.122280
   19   H19        1.091018324     0.407877174     1.745566872       H   1  noname    0.094744


@<TRIPOS>BOND
    1      1      2    1
    2      2      3    1
    3      2      4    1
    4      4      5    1
    5      4      6    1
    6      1      7    1
    7      1      8    1
    8      1      9    1
    9      2     10    1
   10      3     11    1
   11      3     12    1
   12      3     13    1
   13      5     14    1
   14      5     15    1
   15      5     16    1
   16      6     17    1
   17      6     18    1
   18      6     19    1
#
#	File Created by: Spartan'20 Export
#

@<TRIPOS>MOLECULE
M0135
22 21
SMALL
MULLIKEN_CHARGES


@<TRIPOS>ATOM
    1   C1         2.323449916    -0.315493693    -1.226262486     C.3   1  noname   -0.336861
    2   C2         1.639098002    -0.987063939    -0.028054679     C.3   1  noname    0.043561
    3   C3         2.190887141    -0.468073350     1.307279873     C.3   1  noname   -0.340827
    4   N4         0.173496100    -0.905406391    -0.091881608     N.2   1  noname   -0.224985
    5   C5        -0.367413633     0.256909435    -0.067298419     C.2   1  noname   -0.016507
    6   N6        -1.718841120     0.459671956    -0.203808625   N.pl3   1  noname    0.014413
    7   C7        -2.305030844     1.718054861     0.204595835     C.3   1  noname   -0.273630
    8   C8        -2.604451518    -0.686695702    -0.267041069     C.3   1  noname   -0.275722
    9   H9         1.919430730    -0.707787738    -2.170645243       H   1  noname    0.118930
   10   H10        3.408369170    -0.498928401    -1.210898560       H   1  noname    0.109165
   11   H11        2.167376710     0.774575937    -1.216990481       H   1  noname    0.094305
   12   H12        1.873045047    -2.064293048    -0.079781860       H   1  noname    0.072102
   13   H13        2.044114704     0.619157672     1.406325732       H   1  noname    0.093727
   14   H14        3.269704066    -0.668598813     1.391059466       H   1  noname    0.108896
   15   H15        1.679743935    -0.957900200     2.148323649       H   1  noname    0.118611
   16   H16        0.187014365     1.209628615     0.031851634       H   1  noname    0.052070
   17   H17       -3.129652205     1.993898002    -0.471693007       H   1  noname    0.126560
   18   H18       -1.544602369     2.509902965     0.164156948       H   1  noname    0.121587
   19   H19       -2.708907246     1.678844804     1.235090537       H   1  noname    0.114807
   20   H20       -2.089331557    -1.505654670    -0.782433523       H   1  noname    0.150412
   21   H21       -2.888701541    -1.045466402     0.740205998       H   1  noname    0.109625
   22   H22       -3.518797852    -0.409281899    -0.812100113       H   1  noname    0.115131


@<TRIPOS>BOND
    1      1      2    1
    2      2      3    1
    3      2      4    1
    4      4      5    2
    5      5      6    1
    6      6      7    1
    7      6      8    1
    8      1      9    1
    9      1     10    1
   10      1     11    1
   11      2     12    1
   12      3     13    1
   13      3     14    1
   14      3     15    1
   15      5     16    1
   16      7     17    1
   17      7     18    1
   18      7     19    1
   19      8     20    1
   20      8     21    1
   21      8     22    1
#
#	File Created by: Spartan'20 Export
#

@<TRIPOS>MOLECULE
M0136
16 15
SMALL
MULLIKEN_CHARGES


@<TRIPOS>ATOM
    1   C1        -0.754602047     1.282498566    -0.020930328     C.3   1  noname   -0.349044
    2   C2        -0.319154385    -0.130470277     0.402513952     C.3   1  noname    0.031892
    3   C3        -1.502355704    -1.097209332     0.354122573     C.3   1  noname   -0.322141
    4   N4         0.784037321    -0.697535271    -0.383976749     N.3   1  noname   -0.254656
    5   C5         2.051042472     0.015941597    -0.287390690     C.3   1  noname   -0.290251
    6   H6        -1.545417426     1.667273891     0.640645119       H   1  noname    0.108214
    7   H7         0.078554242     1.998969533     0.007741980       H   1  noname    0.121185
    8   H8        -1.156506144     1.263924222    -1.047399370       H   1  noname    0.096387
    9   H9         0.050153495    -0.080700712     1.443756765       H   1  noname    0.065507
   10   H10       -1.892327972    -1.173986498    -0.674588378       H   1  noname    0.098725
   11   H11       -2.326291333    -0.750665084     0.994421013       H   1  noname    0.108755
   12   H12       -1.195922473    -2.100850870     0.678271212       H   1  noname    0.122387
   13   H13        0.495444611    -0.767680160    -1.363595413       H   1  noname    0.172717
   14   H14        2.033947941     1.073296134    -0.624826372       H   1  noname    0.096816
   15   H15        2.388142076     0.010127708     0.761394749       H   1  noname    0.116559
   16   H16        2.811255325    -0.512933448    -0.880160062       H   1  noname    0.125233


@<TRIPOS>BOND
    1      1      2    1
    2      2      3    1
    3      2      4    1
    4      4      5    1
    5      1      6    1
    6      1      7    1
    7      1      8    1
    8      2      9    1
    9      3     10    1
   10      3     11    1
   11      3     12    1
   12      4     13    1
   13      5     14    1
   14      5     15    1
   15      5     16    1
#
#	File Created by: Spartan'20 Export
#

@<TRIPOS>MOLECULE
M0137
22 21
SMALL
MULLIKEN_CHARGES


@<TRIPOS>ATOM
    1   C1         1.587489905    -1.396874700     0.207512997     C.3   1  noname   -0.337437
    2   C2         1.208859203     0.086843692     0.340157625     C.3   1  noname    0.013204
    3   C3         2.381140356     0.982691324    -0.060670700     C.3   1  noname   -0.334765
    4   N4         0.031372143     0.494533997    -0.438308439     N.3   1  noname   -0.247234
    5   C5        -1.243823106    -0.179522839    -0.161750259     C.3   1  noname    0.064962
    6   C6        -2.256339094     0.269138467    -1.215472659     C.3   1  noname   -0.353673
    7   C7        -1.739117494     0.160196780     1.245509369     C.3   1  noname   -0.340031
    8   H8         2.464202616    -1.637042178     0.828235859       H   1  noname    0.108297
    9   H9         0.769439717    -2.061555042     0.520040489       H   1  noname    0.122482
   10   H10        1.840107645    -1.635473596    -0.838566987       H   1  noname    0.095591
   11   H11        0.974675181     0.289961084     1.399136686       H   1  noname    0.074201
   12   H12        2.658545499     0.807230893    -1.113614377       H   1  noname    0.099880
   13   H13        3.268360517     0.773335072     0.554029197       H   1  noname    0.109639
   14   H14        2.112605459     2.042023683     0.049262453       H   1  noname    0.122470
   15   H15        0.249863322     0.393484180    -1.434135822       H   1  noname    0.160622
   16   H16       -1.157113038    -1.287196408    -0.231588977       H   1  noname    0.049396
   17   H17       -2.397809120     1.359251296    -1.166772463       H   1  noname    0.113119
   18   H18       -3.228416152    -0.219639626    -1.058298149       H   1  noname    0.109746
   19   H19       -1.913138306     0.014269518    -2.230798439       H   1  noname    0.107783
   20   H20       -1.822304474     1.251608436     1.361869361       H   1  noname    0.109599
   21   H21       -2.726880576    -0.290353161     1.419133569       H   1  noname    0.105543
   22   H22       -1.061720203    -0.216910873     2.025089665       H   1  noname    0.116581


@<TRIPOS>BOND
    1      1      2    1
    2      2      3    1
    3      2      4    1
    4      4      5    1
    5      5      6    1
    6      5      7    1
    7      1      8    1
    8      1      9    1
    9      1     10    1
   10      2     11    1
   11      3     12    1
   12      3     13    1
   13      3     14    1
   14      4     15    1
   15      5     16    1
   16      6     17    1
   17      6     18    1
   18      6     19    1
   19      7     20    1
   20      7     21    1
   21      7     22    1
#
#	File Created by: Spartan'20 Export
#

@<TRIPOS>MOLECULE
M0138
17 16
SMALL
MULLIKEN_CHARGES


@<TRIPOS>ATOM
    1   C1         1.325829845     1.112778706     0.782624546     C.3   1  noname   -0.358895
    2   C2         0.887708094    -0.244734386     0.253326898     C.3   1  noname    0.097736
    3   C3         1.835770528    -0.828721378    -0.779298865     C.3   1  noname   -0.317665
    4   O4        -0.407428156    -0.108702409    -0.418159148     O.3   1  noname   -0.179707
    5   C5        -1.514653979    -0.169932596     0.368671632     C.2   1  noname    0.269711
    6   O6        -1.492491245    -0.333895964     1.573073091     O.2   1  noname   -0.287635
    7   C7        -2.761364519    -0.009011743    -0.466457639     C.3   1  noname   -0.347377
    8   H8         1.430781810     1.833819106    -0.041710447       H   1  noname    0.109073
    9   H9         2.298216358     1.023085084     1.288567287       H   1  noname    0.113911
   10   H10        0.597544653     1.498853481     1.507506775       H   1  noname    0.144137
   11   H11        0.748092451    -0.941489446     1.094308408       H   1  noname    0.093973
   12   H12        1.473040500    -1.800526499    -1.141095130       H   1  noname    0.123434
   13   H13        2.830435959    -0.974227555    -0.334370918       H   1  noname    0.114107
   14   H14        1.938400354    -0.153138188    -1.641142000       H   1  noname    0.113863
   15   H15       -2.736922448     0.952988242    -0.997304654       H   1  noname    0.133077
   16   H16       -2.809904761    -0.799465333    -1.228514679       H   1  noname    0.133215
   17   H17       -3.643055443    -0.057679123     0.179974843       H   1  noname    0.137323


@<TRIPOS>BOND
    1      1      2    1
    2      2      3    1
    3      2      4    1
    4      4      5    1
    5      5      6    2
    6      5      7    1
    7      1      8    1
    8      1      9    1
    9      1     10    1
   10      2     11    1
   11      3     12    1
   12      3     13    1
   13      3     14    1
   14      7     15    1
   15      7     16    1
   16      7     17    1
#
#	File Created by: Spartan'20 Export
#

@<TRIPOS>MOLECULE
M0139
21 20
SMALL
MULLIKEN_CHARGES


@<TRIPOS>ATOM
    1   C1         0.889553678    -2.198410774    -0.731040652     C.3   1  noname   -0.315321
    2   C2         0.148158646    -1.202987028     0.149868601     C.3   1  noname    0.086476
    3   C3        -1.215268062    -1.731579873     0.595630863     C.3   1  noname   -0.322183
    4   O4        -0.000102682     0.000148012    -0.619624437     O.3   1  noname   -0.237030
    5   C5        -0.148206847     1.203293354     0.149891220     C.3   1  noname    0.086441
    6   C6         1.215372085     1.731416494     0.595677508     C.3   1  noname   -0.322111
    7   C7        -0.889552150     2.198655311    -0.731110054     C.3   1  noname   -0.315308
    8   H8         1.872154804    -1.802182174    -1.021020630       H   1  noname    0.117927
    9   H9         0.311894361    -2.392769867    -1.647043149       H   1  noname    0.111472
   10   H10        1.034741426    -3.152383308    -0.203970548       H   1  noname    0.104079
   11   H11        0.764648707    -0.991847557     1.047201505       H   1  noname    0.047255
   12   H12       -1.104030181    -2.641337924     1.204485416       H   1  noname    0.109003
   13   H13       -1.755413772    -0.988504152     1.199853565       H   1  noname    0.109463
   14   H14       -1.830589755    -1.971930794    -0.284050779       H   1  noname    0.108014
   15   H15       -0.764754417     0.992138390     1.047193843       H   1  noname    0.047275
   16   H16        1.755113381     0.987954769     1.199800309       H   1  noname    0.109448
   17   H17        1.830768513     1.971480531    -0.284010135       H   1  noname    0.108004
   18   H18        1.104470611     2.641114945     1.204661364       H   1  noname    0.108992
   19   H19       -1.034696082     3.152748826    -0.204261747       H   1  noname    0.104074
   20   H20       -0.312063028     2.392665013    -1.647287648       H   1  noname    0.111474
   21   H21       -1.872199237     1.802317806    -1.020844414       H   1  noname    0.117925


@<TRIPOS>BOND
    1      1      2    1
    2      2      3    1
    3      2      4    1
    4      4      5    1
    5      5      6    1
    6      5      7    1
    7      1      8    1
    8      1      9    1
    9      1     10    1
   10      2     11    1
   11      3     12    1
   12      3     13    1
   13      3     14    1
   14      5     15    1
   15      6     16    1
   16      6     17    1
   17      6     18    1
   18      7     19    1
   19      7     20    1
   20      7     21    1
#
#	File Created by: Spartan'20 Export
#

@<TRIPOS>MOLECULE
M0140
20 20
SMALL
MULLIKEN_CHARGES


@<TRIPOS>ATOM
    1   C1         0.215361638    -1.265544613    -1.940667100     C.3   1  noname   -0.371625
    2   C2        -0.382895939     0.000819537    -1.308456444     C.3   1  noname    0.037437
    3   C3         0.216377152     1.265776806    -1.942398437     C.3   1  noname   -0.371567
    4   C4        -0.171726048     0.001263746     0.194298336     C.2   1  noname    0.222688
    5   C5        -1.250301170    -0.000049306     1.089020511     C.2   1  noname   -0.151285
    6   C6        -0.999781458    -0.001042544     2.461277980     C.2   1  noname   -0.084886
    7   C7         0.323479376    -0.000693441     2.901850719     C.2   1  noname   -0.070784
    8   C8         1.334525829     0.000751915     1.938661982     C.2   1  noname   -0.090395
    9   N9         1.105193188     0.001695119     0.620093721     N.2   1  noname   -0.195937
   10   H10       -0.241153326    -2.176586758    -1.526031988       H   1  noname    0.112935
   11   H11        1.296999821    -1.308449324    -1.747742016       H   1  noname    0.128893
   12   H12        0.054277418    -1.266096559    -3.029191211       H   1  noname    0.111833
   13   H13       -1.471683910     0.001106629    -1.490274021       H   1  noname    0.054416
   14   H14       -0.239366536     2.177739292    -1.529001575       H   1  noname    0.112911
   15   H15        0.055199100     1.264807923    -3.030913133       H   1  noname    0.111819
   16   H16        1.298058464     1.307888473    -1.749632394       H   1  noname    0.128900
   17   H17       -2.273387937    -0.000570006     0.706201446       H   1  noname    0.104284
   18   H18       -1.826776308    -0.002225399     3.175072519       H   1  noname    0.112889
   19   H19        0.570868077    -0.001588343     3.964637942       H   1  noname    0.109166
   20   H20        2.386732569     0.000996852     2.243193165       H   1  noname    0.105729


@<TRIPOS>BOND
    1      1      2    1
    2      2      3    1
    3      2      4    1
    4      4      5    2
    5      5      6    1
    6      6      7    2
    7      7      8    1
    8      8      9    2
    9      9      4    1
   10      1     10    1
   11      1     11    1
   12      1     12    1
   13      2     13    1
   14      3     14    1
   15      3     15    1
   16      3     16    1
   17      5     17    1
   18      6     18    1
   19      7     19    1
   20      8     20    1
#
#	File Created by: Spartan'20 Export
#

@<TRIPOS>MOLECULE
M0141
29 29
SMALL
MULLIKEN_CHARGES


@<TRIPOS>ATOM
    1   C1        -2.628855468     1.325974849    -0.490715521     C.3   1  noname   -0.341156
    2   C2        -1.616244157     0.211402338    -0.194972784     C.3   1  noname    0.113349
    3   C3        -0.199372338     0.819990539    -0.156446853     C.3   1  noname   -0.207155
    4   C4         0.913428458    -0.203090584    -0.135234725     C.2   1  noname    0.193855
    5   C5         0.696309189    -1.475546256    -0.614831863     C.2   1  noname   -0.365609
    6   C6        -0.560938419    -1.900653111    -1.192318500     C.2   1  noname    0.123365
    7   O7        -0.742453127    -3.047998828    -1.616435621     O.2   1  noname   -0.285118
    8   C8        -1.666961703    -0.853986613    -1.299487982     C.3   1  noname   -0.134241
    9   N9         2.125352309     0.189134574     0.364355798   N.pl3   1  noname    0.062732
   10   C10        3.187080156    -0.794710401     0.507480967     C.3   1  noname   -0.319769
   11   C11        2.388361508     1.541322305     0.834484199     C.3   1  noname   -0.339516
   12   C12       -1.961550285    -0.421732912     1.164902865     C.3   1  noname   -0.388135
   13   H13       -3.650271176     0.918984165    -0.532519690       H   1  noname    0.121089
   14   H14       -2.421207034     1.810676735    -1.457319385       H   1  noname    0.111037
   15   H15       -2.610866813     2.102890751     0.290928115       H   1  noname    0.109127
   16   H16       -0.127667364     1.475730872     0.725057328       H   1  noname    0.117538
   17   H17       -0.061905324     1.472893724    -1.038724756       H   1  noname    0.108525
   18   H18        1.477701291    -2.234409811    -0.603544872       H   1  noname    0.083847
   19   H19       -2.632936436    -1.380269497    -1.304641426       H   1  noname    0.091445
   20   H20       -1.562932894    -0.368937911    -2.287579724       H   1  noname    0.090676
   21   H21        4.046585021    -0.332667979     1.005711684       H   1  noname    0.130096
   22   H22        3.513256602    -1.180446166    -0.473141200       H   1  noname    0.145712
   23   H23        2.851246048    -1.651401742     1.114240832       H   1  noname    0.145074
   24   H24        2.113799165     1.684214138     1.895602927       H   1  noname    0.137238
   25   H25        1.848611853     2.282658431     0.233363976       H   1  noname    0.152658
   26   H26        3.459989473     1.754597073     0.728383581       H   1  noname    0.135043
   27   H27       -1.920372982     0.329550246     1.969043526       H   1  noname    0.103767
   28   H28       -2.981277326    -0.833437687     1.141424720       H   1  noname    0.118348
   29   H29       -1.275908227    -1.240731244     1.422934385       H   1  noname    0.141299


@<TRIPOS>BOND
    1      1      2    1
    2      2      3    1
    3      3      4    1
    4      4      5    2
    5      5      6    1
    6      6      7    2
    7      6      8    1
    8      4      9    1
    9      9     10    1
   10      9     11    1
   11      2     12    1
   12      8      2    1
   13      1     13    1
   14      1     14    1
   15      1     15    1
   16      3     16    1
   17      3     17    1
   18      5     18    1
   19      8     19    1
   20      8     20    1
   21     10     21    1
   22     10     22    1
   23     10     23    1
   24     11     24    1
   25     11     25    1
   26     11     26    1
   27     12     27    1
   28     12     28    1
   29     12     29    1
#
#	File Created by: Spartan'20 Export
#

@<TRIPOS>MOLECULE
M0142
25 25
SMALL
MULLIKEN_CHARGES


@<TRIPOS>ATOM
    1   C1         2.134508582     1.085718122     0.682937399     C.3   1  noname   -0.351661
    2   C2         1.203251526     0.006616450     0.137418901     C.3   1  noname    0.230351
    3   C3         0.704350871     0.297561816    -1.292725953     C.3   1  noname   -0.180258
    4   C4        -0.703060444    -0.294190406    -1.293055156     C.3   1  noname   -0.182133
    5   C5        -1.202633987    -0.004291962     0.137315563     C.3   1  noname    0.230873
    6   O6         0.000342727     0.005156233     0.954065210     O.3   1  noname   -0.258649
    7   C7        -2.128462984    -1.087653885     0.683835101     C.3   1  noname   -0.352110
    8   C8        -1.863611131     1.376322095     0.237211761     C.3   1  noname   -0.366734
    9   C9         1.856930185    -1.377426846     0.238667363     C.3   1  noname   -0.366944
   10   H10        2.383073814     0.879309897     1.733772859       H   1  noname    0.117347
   11   H11        3.072557603     1.122220722     0.108669882       H   1  noname    0.105363
   12   H12        1.649727098     2.070487394     0.630732738       H   1  noname    0.110599
   13   H13        1.361198622    -0.141321289    -2.056713642       H   1  noname    0.097212
   14   H14        0.671991960     1.384220334    -1.466746382       H   1  noname    0.093436
   15   H15       -0.671228221    -1.380612159    -1.468516286       H   1  noname    0.093944
   16   H16       -1.359777391     0.145535189    -2.056678535       H   1  noname    0.097379
   17   H17       -2.378737768    -0.881302190     1.734277398       H   1  noname    0.117312
   18   H18       -3.066035483    -1.129986395     0.109144006       H   1  noname    0.105379
   19   H19       -1.638639879    -2.070007364     0.633127255       H   1  noname    0.110617
   20   H20       -2.042121687     1.628052623     1.291895529       H   1  noname    0.116656
   21   H21       -2.826968985     1.392084977    -0.294862803       H   1  noname    0.103243
   22   H22       -1.216210352     2.153921890    -0.193258049       H   1  noname    0.107785
   23   H23        1.205272067    -2.152223680    -0.190430887       H   1  noname    0.107782
   24   H24        2.034278093    -1.628809742     1.293621428       H   1  noname    0.116634
   25   H25        2.820005163    -1.399381826    -0.293704701       H   1  noname    0.103266


@<TRIPOS>BOND
    1      1      2    1
    2      2      3    1
    3      3      4    1
    4      4      5    1
    5      5      6    1
    6      5      7    1
    7      5      8    1
    8      2      9    1
    9      6      2    1
   10      1     10    1
   11      1     11    1
   12      1     12    1
   13      3     13    1
   14      3     14    1
   15      4     15    1
   16      4     16    1
   17      7     17    1
   18      7     18    1
   19      7     19    1
   20      8     20    1
   21      8     21    1
   22      8     22    1
   23      9     23    1
   24      9     24    1
   25      9     25    1
#
#	File Created by: Spartan'20 Export
#

@<TRIPOS>MOLECULE
M0143
29 29
SMALL
MULLIKEN_CHARGES


@<TRIPOS>ATOM
    1   C1         0.954728381     1.666957115    -1.268373222     C.3   1  noname   -0.386734
    2   C2         0.294994219     1.285077456     0.075064833     C.3   1  noname    0.130125
    3   C3        -1.226621065     1.153444190    -0.086174616     C.3   1  noname   -0.175084
    4   C4        -1.655170614     0.004240712    -1.018075912     C.3   1  noname   -0.209547
    5   C5        -0.651441996    -1.165348047    -1.025018333     C.3   1  noname   -0.132058
    6   C6         0.161380030    -1.272259488     0.280772231     C.3   1  noname    0.122660
    7   N7         0.818426294     0.014438980     0.626337629     N.3   1  noname   -0.240013
    8   C8        -0.747528613    -1.715110159     1.445496122     C.3   1  noname   -0.348866
    9   C9         1.263825409    -2.323866922     0.107033761     C.3   1  noname   -0.374940
   10   C10        0.605018840     2.387836647     1.099889859     C.3   1  noname   -0.308745
   11   H11        2.049417805     1.714454231    -1.152124364       H   1  noname    0.106760
   12   H12        0.616359943     2.656898148    -1.613408614       H   1  noname    0.104505
   13   H13        0.731212580     0.939529551    -2.059980965       H   1  noname    0.117850
   14   H14       -1.649690260     0.998369479     0.918257929       H   1  noname    0.094008
   15   H15       -1.631936991     2.111557297    -0.445408675       H   1  noname    0.093617
   16   H16       -2.650803159    -0.350004162    -0.710266362       H   1  noname    0.105638
   17   H17       -1.776320124     0.375788110    -2.047442942       H   1  noname    0.105045
   18   H18       -1.172434474    -2.118252686    -1.210280770       H   1  noname    0.091766
   19   H19        0.062307365    -1.039931106    -1.854576028       H   1  noname    0.082011
   20   H20        1.817146695    -0.048043503     0.427513648       H   1  noname    0.166593
   21   H21       -0.157833741    -1.774343085     2.370705126       H   1  noname    0.107423
   22   H22       -1.192207903    -2.702184353     1.243555275       H   1  noname    0.096775
   23   H23       -1.565228383    -1.003083286     1.618292086       H   1  noname    0.105718
   24   H24        1.918090878    -2.073223171    -0.743184212       H   1  noname    0.112664
   25   H25        0.833439485    -3.318898766    -0.077427820       H   1  noname    0.110639
   26   H26        1.882529076    -2.388792579     1.015877684       H   1  noname    0.125308
   27   H27        0.223880101     3.364968378     0.764371392       H   1  noname    0.096739
   28   H28        0.152197595     2.139998827     2.069780474       H   1  noname    0.109137
   29   H29        1.692262627     2.479782193     1.248794786       H   1  noname    0.101181


@<TRIPOS>BOND
    1      1      2    1
    2      2      3    1
    3      3      4    1
    4      4      5    1
    5      5      6    1
    6      6      7    1
    7      6      8    1
    8      6      9    1
    9      2     10    1
   10      7      2    1
   11      1     11    1
   12      1     12    1
   13      1     13    1
   14      3     14    1
   15      3     15    1
   16      4     16    1
   17      4     17    1
   18      5     18    1
   19      5     19    1
   20      7     20    1
   21      8     21    1
   22      8     22    1
   23      8     23    1
   24      9     24    1
   25      9     25    1
   26      9     26    1
   27     10     27    1
   28     10     28    1
   29     10     29    1
#
#	File Created by: Spartan'20 Export
#

@<TRIPOS>MOLECULE
M0144
32 32
SMALL
MULLIKEN_CHARGES


@<TRIPOS>ATOM
    1   C1         0.680135320    -1.550245550    -1.506648679     C.3   1  noname   -0.319436
    2   C2        -0.048579073    -1.276258820    -0.172663654     C.3   1  noname    0.101757
    3   C3         0.954142313    -1.248849436     1.004037102     C.3   1  noname   -0.176056
    4   C4         1.834916404     0.000091062     1.005946724     C.3   1  noname   -0.166429
    5   C5         0.954299779     1.249141247     1.003775818     C.3   1  noname   -0.175917
    6   C6        -0.048624050     1.276486600    -0.172768828     C.3   1  noname    0.101704
    7   N7        -0.853791128     0.000101815    -0.250974462     N.3   1  noname   -0.046733
    8   C8        -2.003509336    -0.000113123     0.654020004     C.3   1  noname   -0.361343
    9   C9         0.679555548     1.550226348    -1.507070616     C.3   1  noname   -0.319211
   10   C10       -0.980650750     2.488018993     0.030825187     C.3   1  noname   -0.386464
   11   C11       -0.980655722    -2.487878675     0.030640817     C.3   1  noname   -0.386539
   12   H12        1.009220632    -2.599132869    -1.537540861       H   1  noname    0.105745
   13   H13        1.573323908    -0.936755907    -1.662841521       H   1  noname    0.093219
   14   H14       -0.005582347    -1.376318595    -2.346976374       H   1  noname    0.108012
   15   H15        0.385009745    -1.283762685     1.950143621       H   1  noname    0.083317
   16   H16        1.567132380    -2.164725679     0.977145751       H   1  noname    0.084875
   17   H17        2.499067968    -0.000151510     0.126078736       H   1  noname    0.094229
   18   H18        2.494484545     0.000078313     1.887896563       H   1  noname    0.095790
   19   H19        1.567362622     2.164953682     0.976781845       H   1  noname    0.084883
   20   H20        0.385193008     1.284045890     1.949897843       H   1  noname    0.083287
   21   H21       -2.635111854     0.871659973     0.458219192       H   1  noname    0.139817
   22   H22       -1.758579868    -0.001080350     1.740258085       H   1  noname    0.097541
   23   H23       -2.635678412    -0.871218858     0.456916221       H   1  noname    0.139830
   24   H24       -0.007023110     1.377440403    -2.346946808       H   1  noname    0.107912
   25   H25        1.571706195     0.935492150    -1.664239679       H   1  noname    0.093167
   26   H26        1.010003137     2.598688794    -1.537722721       H   1  noname    0.105722
   27   H27       -0.381641023     3.406253612    -0.040635838       H   1  noname    0.111926
   28   H28       -1.757226044     2.527373639    -0.748021248       H   1  noname    0.127707
   29   H29       -1.464979827     2.492373473     1.015981645       H   1  noname    0.129066
   30   H30       -1.465410223    -2.492389011     1.015585448       H   1  noname    0.129080
   31   H31       -1.756918089    -2.527427008    -0.748520078       H   1  noname    0.127716
   32   H32       -0.381592648    -3.406117917    -0.040579234       H   1  noname    0.111935


@<TRIPOS>BOND
    1      1      2    1
    2      2      3    1
    3      3      4    1
    4      4      5    1
    5      5      6    1
    6      6      7    1
    7      7      8    1
    8      6      9    1
    9      6     10    1
   10      2     11    1
   11      7      2    1
   12      1     12    1
   13      1     13    1
   14      1     14    1
   15      3     15    1
   16      3     16    1
   17      4     17    1
   18      4     18    1
   19      5     19    1
   20      5     20    1
   21      8     21    1
   22      8     22    1
   23      8     23    1
   24      9     24    1
   25      9     25    1
   26      9     26    1
   27     10     27    1
   28     10     28    1
   29     10     29    1
   30     11     30    1
   31     11     31    1
   32     11     32    1
#
#	File Created by: Spartan'20 Export
#

@<TRIPOS>MOLECULE
M0145
12 12
SMALL
MULLIKEN_CHARGES


@<TRIPOS>ATOM
    1   C1         1.478907448     0.471399317    -0.221961057     C.3   1  noname   -0.356272
    2   C2         0.295244729    -0.090844654     0.523935620     C.3   1  noname    0.112869
    3   C3        -0.783433627    -0.839726526    -0.276302180     C.3   1  noname   -0.210911
    4   C4        -1.687122079     0.314459339     0.146854623     C.2   1  noname    0.200743
    5   O5        -2.827062338     0.651334749     0.002173135     O.2   1  noname   -0.209033
    6   O6        -0.698610303     0.970258745     0.857621072     O.3   1  noname   -0.170543
    7   H7         2.021637049     1.198200443     0.398132564       H   1  noname    0.134195
    8   H8         2.173207147    -0.338451025    -0.491022724       H   1  noname    0.122838
    9   H9         1.152437084     0.974463010    -1.143707607       H   1  noname    0.123714
   10   H10        0.589477818    -0.591309820     1.458000266       H   1  noname    0.096626
   11   H11       -0.617404683    -0.900939068    -1.359961417       H   1  noname    0.120646
   12   H12       -1.097278244    -1.818844510     0.106237704       H   1  noname    0.126889


@<TRIPOS>BOND
    1      1      2    1
    2      2      3    1
    3      3      4    1
    4      4      5    2
    5      4      6    1
    6      6      2    1
    7      1      7    1
    8      1      8    1
    9      1      9    1
   10      2     10    1
   11      3     11    1
   12      3     12    1
#
#	File Created by: Spartan'20 Export
#

@<TRIPOS>MOLECULE
M0146
15 15
SMALL
MULLIKEN_CHARGES


@<TRIPOS>ATOM
    1   C1        -2.013658487    -0.207518607    -0.143796266     C.3   1  noname   -0.329873
    2   C2        -0.531847052    -0.497502814    -0.243578829     C.3   1  noname    0.068827
    3   C3         0.353488354     0.684654486    -0.668436076     C.3   1  noname   -0.192565
    4   C4         1.674418757     0.376009324     0.031982934     C.3   1  noname   -0.161441
    5   C5         1.250400598    -0.425509970     1.257635479     C.2   1  noname    0.181367
    6   O6         1.880711781    -0.665536189     2.256941361     O.2   1  noname   -0.230910
    7   O7        -0.030881060    -0.880499880     1.072886931     O.3   1  noname   -0.138098
    8   H8        -2.196501529     0.625573969     0.549943837       H   1  noname    0.118161
    9   H9        -2.409145734     0.067134978    -1.133032004       H   1  noname    0.115185
   10   H10       -2.563952713    -1.087883424     0.214163354       H   1  noname    0.133989
   11   H11       -0.358878091    -1.361866612    -0.911178802       H   1  noname    0.081658
   12   H12        0.430493349     0.770144699    -1.760402374       H   1  noname    0.111601
   13   H13       -0.077091099     1.622510730    -0.283033281       H   1  noname    0.100929
   14   H14        2.263471841     1.248672228     0.337479017       H   1  noname    0.124107
   15   H15        2.328971084    -0.268382919    -0.577575281       H   1  noname    0.117861


@<TRIPOS>BOND
    1      1      2    1
    2      2      3    1
    3      3      4    1
    4      4      5    1
    5      5      6    2
    6      5      7    1
    7      7      2    1
    8      1      8    1
    9      1      9    1
   10      1     10    1
   11      2     11    1
   12      3     12    1
   13      3     13    1
   14      4     14    1
   15      4     15    1
#
#	File Created by: Spartan'20 Export
#

@<TRIPOS>MOLECULE
M0147
16 16
SMALL
MULLIKEN_CHARGES


@<TRIPOS>ATOM
    1   C1         2.019646653     0.602165192    -0.246522231     C.3   1  noname   -0.325499
    2   C2         0.665134983     0.323689865     0.377202185     C.3   1  noname    0.075419
    3   C3         0.054093498    -1.041090674     0.056469970     C.3   1  noname   -0.162290
    4   C4        -1.441390720    -0.772979490     0.249302783     C.3   1  noname   -0.181657
    5   C5        -1.577454387     0.665826152    -0.269889154     C.3   1  noname   -0.030425
    6   O6        -0.288897295     1.286579892    -0.119307286     O.3   1  noname   -0.244043
    7   H7         2.339252157     1.631063872    -0.031467236       H   1  noname    0.124463
    8   H8         2.778352630    -0.084351818     0.158463779       H   1  noname    0.104392
    9   H9         1.974090361     0.473691056    -1.338219909       H   1  noname    0.105275
   10   H10        0.740578358     0.437945134     1.479609108       H   1  noname    0.053764
   11   H11        0.442028837    -1.841324300     0.701903394       H   1  noname    0.101003
   12   H12        0.270425245    -1.309743954    -0.990827173       H   1  noname    0.083651
   13   H13       -2.086327266    -1.479028892    -0.291498142       H   1  noname    0.106234
   14   H14       -1.705223002    -0.827062985     1.316781142       H   1  noname    0.094931
   15   H15       -1.856514407     0.683816274    -1.339279105       H   1  noname    0.079682
   16   H16       -2.327795646     1.250804678     0.287277874       H   1  noname    0.087895


@<TRIPOS>BOND
    1      1      2    1
    2      2      3    1
    3      3      4    1
    4      4      5    1
    5      5      6    1
    6      6      2    1
    7      1      7    1
    8      1      8    1
    9      1      9    1
   10      2     10    1
   11      3     11    1
   12      3     12    1
   13      4     13    1
   14      4     14    1
   15      5     15    1
   16      5     16    1
#
#	File Created by: Spartan'20 Export
#

@<TRIPOS>MOLECULE
M0148
11 11
SMALL
MULLIKEN_CHARGES


@<TRIPOS>ATOM
    1   C1         1.290248257     0.126634310    -0.213071109     C.3   1  noname   -0.338545
    2   C2        -0.082516521     0.515718747     0.273510038     C.3   1  noname   -0.002614
    3   C3        -1.297513058    -0.102606375    -0.315703069     C.3   1  noname   -0.166746
    4   N4        -0.891122063    -0.429227456     1.071128241     N.3   1  noname   -0.301096
    5   H5         2.032615468     0.182034562     0.598316582       H   1  noname    0.124371
    6   H6         1.628357334     0.793380118    -1.021406087       H   1  noname    0.117231
    7   H7         1.289365897    -0.902576191    -0.606179756       H   1  noname    0.103164
    8   H8        -0.169360291     1.547102660     0.631791884       H   1  noname    0.104263
    9   H9        -2.225823602     0.466851577    -0.398998522       H   1  noname    0.108876
   10   H10       -1.148217354    -0.853486590    -1.097146896       H   1  noname    0.106070
   11   H11       -0.426034068    -1.343825363     1.077758693       H   1  noname    0.196875


@<TRIPOS>BOND
    1      1      2    1
    2      2      3    1
    3      3      4    1
    4      4      2    1
    5      1      5    1
    6      1      6    1
    7      1      7    1
    8      2      8    1
    9      3      9    1
   10      3     10    1
   11      4     11    1
#
#	File Created by: Spartan'20 Export
#

@<TRIPOS>MOLECULE
M0149
10 10
SMALL
MULLIKEN_CHARGES


@<TRIPOS>ATOM
    1   C1        -1.216428112     0.281180302    -0.142632019     C.3   1  noname   -0.333735
    2   C2         0.119601245    -0.371160641    -0.369014010     C.3   1  noname    0.069280
    3   C3         1.322767078     0.025703579     0.377948582     C.3   1  noname   -0.060646
    4   O4         0.628095957    -1.191495809     0.702478444     O.3   1  noname   -0.275620
    5   H5        -1.271230760     0.707931962     0.868561300       H   1  noname    0.121376
    6   H6        -2.030786930    -0.450226571    -0.253961932       H   1  noname    0.123605
    7   H7        -1.382568179     1.086777571    -0.874313238       H   1  noname    0.111156
    8   H8         0.274130291    -0.810347910    -1.364155620       H   1  noname    0.102064
    9   H9         2.315077976    -0.103152741    -0.069194351       H   1  noname    0.101598
   10   H10        1.241341434     0.824790257     1.124282844       H   1  noname    0.098396


@<TRIPOS>BOND
    1      1      2    1
    2      2      3    1
    3      3      4    1
    4      4      2    1
    5      1      5    1
    6      1      6    1
    7      1      7    1
    8      2      8    1
    9      3      9    1
   10      3     10    1
#
#	File Created by: Spartan'20 Export
#

@<TRIPOS>MOLECULE
M0150
13 13
SMALL
MULLIKEN_CHARGES


@<TRIPOS>ATOM
    1   C1         1.599232347     0.254238547     0.479263528     C.3   1  noname   -0.345958
    2   C2         0.394227878    -0.053796203    -0.380472896     C.3   1  noname    0.073505
    3   C3        -0.651923755    -0.975995377     0.254937608     C.3   1  noname   -0.028520
    4   O4        -1.905186805    -0.439538443    -0.204223227     O.3   1  noname   -0.165042
    5   C5        -1.708131720     0.854381600    -0.613450590     C.2   1  noname    0.276523
    6   O6        -2.583941936     1.611872543    -0.918978111     O.2   1  noname   -0.223584
    7   O7        -0.374054598     1.154139391    -0.622409735     O.3   1  noname   -0.166027
    8   H8         1.287992249     0.673198598     1.446515306       H   1  noname    0.125187
    9   H9         2.175808863    -0.664910445     0.662470904       H   1  noname    0.122643
   10   H10        2.257819278     0.975760329    -0.021489865       H   1  noname    0.140327
   11   H11        0.706712797    -0.439641422    -1.366750258       H   1  noname    0.089173
   12   H12       -0.625485198    -0.929230878     1.356951961       H   1  noname    0.095945
   13   H13       -0.573069402    -2.020478240    -0.072364626       H   1  noname    0.120683


@<TRIPOS>BOND
    1      1      2    1
    2      2      3    1
    3      3      4    1
    4      4      5    1
    5      5      6    2
    6      5      7    1
    7      7      2    1
    8      1      8    1
    9      1      9    1
   10      1     10    1
   11      2     11    1
   12      3     12    1
   13      3     13    1
#
#	File Created by: Spartan'20 Export
#

@<TRIPOS>MOLECULE
M0151
7 6
SMALL
MULLIKEN_CHARGES


@<TRIPOS>ATOM
    1   C1        -0.280723073    -0.000000625    -0.586039636     C.3   1  noname   -0.270230
    2   C2         0.339605977    -0.000004253     0.783459595     C.2   1  noname    0.090852
    3   O3        -0.281373680     0.000110363     1.826022052     O.2   1  noname   -0.217432
    4   H4         0.067500146     0.882319505    -1.148508771       H   1  noname    0.128322
    5   H5        -1.375188909    -0.000071310    -0.518699592       H   1  noname    0.122813
    6   H6         0.067611752    -0.882238580    -1.148565191       H   1  noname    0.128313
    7   H7         1.462567788    -0.000115100     0.792331543       H   1  noname    0.053076


@<TRIPOS>BOND
    1      1      2    1
    2      2      3    2
    3      1      4    1
    4      1      5    1
    5      1      6    1
    6      2      7    1
#
#	File Created by: Spartan'20 Export
#

@<TRIPOS>MOLECULE
M0152
13 12
SMALL
MULLIKEN_CHARGES


@<TRIPOS>ATOM
    1   C1        -0.356048161    -0.000016357    -1.895560686     C.3   1  noname   -0.327303
    2   C2         0.417513533     0.000231432    -0.583850763     C.3   1  noname   -0.167554
    3   C3        -0.466069213    -0.000022665     0.656480809     C.2   1  noname    0.158666
    4   O4        -1.683517400    -0.000297888     0.581795524     O.2   1  noname   -0.243433
    5   C5         0.252637437    -0.000074240     1.992525456     C.3   1  noname   -0.327180
    6   H6        -1.005343799     0.882841215    -1.968123683       H   1  noname    0.121214
    7   H7        -1.005123932    -0.883056037    -1.967883412       H   1  noname    0.121224
    8   H8         0.328949902    -0.000058020    -2.754685796       H   1  noname    0.116099
    9   H9         1.090026884     0.874312260    -0.512299441       H   1  noname    0.110020
   10   H10        1.090539049    -0.873456541    -0.512266758       H   1  noname    0.110006
   11   H11       -0.474793086     0.000642906     2.811851382       H   1  noname    0.135169
   12   H12        0.906244995     0.882413064     2.075770519       H   1  noname    0.125254
   13   H13        0.904983792    -0.883459129     2.076246849       H   1  noname    0.125292


@<TRIPOS>BOND
    1      1      2    1
    2      2      3    1
    3      3      4    2
    4      3      5    1
    5      1      6    1
    6      1      7    1
    7      1      8    1
    8      2      9    1
    9      2     10    1
   10      5     11    1
   11      5     12    1
   12      5     13    1
#
#	File Created by: Spartan'20 Export
#

@<TRIPOS>MOLECULE
M0153
16 15
SMALL
MULLIKEN_CHARGES


@<TRIPOS>ATOM
    1   C1         2.554744376     0.000049878     0.334403435     C.3   1  noname   -0.324117
    2   C2         1.293292071    -0.000171143    -0.518446913     C.3   1  noname   -0.165177
    3   C3         0.000181516     0.000093932     0.286873543     C.2   1  noname    0.138613
    4   O4         0.000321996     0.000122571     1.506811184     O.2   1  noname   -0.251727
    5   C5        -1.293150021     0.000273063    -0.518228236     C.3   1  noname   -0.165189
    6   C6        -2.554759935    -0.000135456     0.334447764     C.3   1  noname   -0.324183
    7   H7         2.589551007     0.883508698     0.986019183       H   1  noname    0.120547
    8   H8         2.589322096    -0.882841295     0.986800699       H   1  noname    0.120569
    9   H9         3.453346930    -0.000360024    -0.297980525       H   1  noname    0.116391
   10   H10        1.265653509     0.873566576    -1.194231285       H   1  noname    0.111145
   11   H11        1.265581730    -0.874362921    -1.193647943       H   1  noname    0.111151
   12   H12       -1.265688501     0.874462169    -1.193439152       H   1  noname    0.111157
   13   H13       -1.265574530    -0.873447348    -1.194042440       H   1  noname    0.111142
   14   H14       -2.589886353     0.882811606     0.986740005       H   1  noname    0.120570
   15   H15       -3.453214561    -0.000004979    -0.298180793       H   1  noname    0.116410
   16   H16       -2.589721327    -0.883565330     0.986101473       H   1  noname    0.120554


@<TRIPOS>BOND
    1      1      2    1
    2      2      3    1
    3      3      4    2
    4      3      5    1
    5      5      6    1
    6      1      7    1
    7      1      8    1
    8      1      9    1
    9      2     10    1
   10      2     11    1
   11      5     12    1
   12      5     13    1
   13      6     14    1
   14      6     15    1
   15      6     16    1
#
#	File Created by: Spartan'20 Export
#

@<TRIPOS>MOLECULE
M0154
18 17
SMALL
MULLIKEN_CHARGES


@<TRIPOS>ATOM
    1   C1         2.286297936     0.121169856    -0.263425558     C.3   1  noname   -0.367471
    2   C2         1.361321293    -0.510425546     0.785743482     C.3   1  noname   -0.199999
    3   C3         0.055274205    -0.998757072     0.164904303     C.2   1  noname    0.207412
    4   O4        -0.058198743    -2.174157238    -0.190323607     O.2   1  noname   -0.334726
    5   N5        -0.963741424    -0.086948149    -0.014533389    N.am   1  noname   -0.009552
    6   C6        -0.899147036     1.326997066     0.300007449     C.3   1  noname   -0.304332
    7   C7        -2.190871922    -0.519917853    -0.663063619     C.3   1  noname   -0.293567
    8   H8         3.261307130     0.376395856     0.175472877       H   1  noname    0.123253
    9   H9         1.857074376     1.040601365    -0.689151633       H   1  noname    0.114916
   10   H10        2.458173636    -0.582214050    -1.090352977       H   1  noname    0.136719
   11   H11        1.831436510    -1.410531420     1.203112978       H   1  noname    0.117516
   12   H12        1.191476139     0.184196421     1.622603466       H   1  noname    0.103892
   13   H13       -1.761482929     1.619345200     0.922818990       H   1  noname    0.128394
   14   H14        0.015551331     1.572854834     0.845906704       H   1  noname    0.137666
   15   H15       -0.927270864     1.938493692    -0.619721315       H   1  noname    0.127611
   16   H16       -3.061061696    -0.292029033    -0.025935382       H   1  noname    0.118006
   17   H17       -2.129212401    -1.599483152    -0.834025656       H   1  noname    0.167161
   18   H18       -2.326925541    -0.005590778    -1.630037112       H   1  noname    0.115871


@<TRIPOS>BOND
    1      1      2    1
    2      2      3    1
    3      3      4    2
    4      3      5    am
    5      5      6    1
    6      5      7    1
    7      1      8    1
    8      1      9    1
    9      1     10    1
   10      2     11    1
   11      2     12    1
   12      6     13    1
   13      6     14    1
   14      6     15    1
   15      7     16    1
   16      7     17    1
   17      7     18    1
#
#	File Created by: Spartan'20 Export
#

@<TRIPOS>MOLECULE
M0155
44 45
SMALL
MULLIKEN_CHARGES


@<TRIPOS>ATOM
    1   C1        -1.364868759     4.172349147     0.549640125     C.3   1  noname   -0.318667
    2   C2        -1.491711405     2.664863406     0.355427148     C.3   1  noname   -0.219268
    3   C3        -0.120706153     1.982045254     0.269828385     C.2   1  noname    0.197337
    4   O4         0.913862893     2.655630909     0.318743773     O.2   1  noname   -0.351649
    5   N5        -0.084933382     0.613510026     0.146074168    N.am   1  noname    0.118044
    6   C6         1.224476886    -0.065857808     0.045804534     C.3   1  noname   -0.009482
    7   C7         2.024356139     0.307927307    -1.210543613     C.3   1  noname   -0.231421
    8   C8         3.193675101    -0.676827627    -1.395548362     C.3   1  noname   -0.173913
    9   C9         3.867529666    -1.045373002    -0.050032890     C.3   1  noname   -0.170898
   10   C10        3.585063985     0.019777884     1.013546278     C.3   1  noname   -0.129387
   11   C11        2.082868127     0.088614473     1.327957955     C.3   1  noname   -0.191139
   12   C12       -1.286826359    -0.224945735     0.028585500     C.3   1  noname   -0.140351
   13   C13       -1.405268019    -0.921241110    -1.336646766     C.3   1  noname   -0.175889
   14   C14       -2.805137229    -1.548284796    -1.502497590     C.3   1  noname   -0.168331
   15   C15       -3.388056568    -2.041200278    -0.160337251     C.3   1  noname   -0.179298
   16   C16       -2.266029649    -2.463843260     0.792609670     C.3   1  noname   -0.117000
   17   C17       -1.401677109    -1.248170607     1.183447137     C.3   1  noname   -0.186493
   18   H18       -0.835519457     4.407237340     1.482336655       H   1  noname    0.116720
   19   H19       -2.359728361     4.639342588     0.584275415       H   1  noname    0.109368
   20   H20       -0.791242527     4.625739051    -0.268893082       H   1  noname    0.120742
   21   H21       -2.073250290     2.221500340     1.181389368       H   1  noname    0.113547
   22   H22       -2.062019636     2.451271224    -0.565373078       H   1  noname    0.112216
   23   H23        0.975030693    -1.133553045    -0.062143450       H   1  noname    0.072614
   24   H24        2.387707884     1.338827243    -1.110087035       H   1  noname    0.140966
   25   H25        1.366107469     0.287582244    -2.092155901       H   1  noname    0.089715
   26   H26        2.834402157    -1.592207058    -1.893837746       H   1  noname    0.086181
   27   H27        3.933279815    -0.226821618    -2.075864555       H   1  noname    0.095534
   28   H28        4.950469129    -1.180998358    -0.190935043       H   1  noname    0.097075
   29   H29        3.485542806    -2.014892692     0.314948003       H   1  noname    0.077193
   30   H30        3.929198250     1.001503413     0.649756779       H   1  noname    0.092191
   31   H31        4.150553640    -0.185280974     1.935555347       H   1  noname    0.094440
   32   H32        1.811239766    -0.713261054     2.035292287       H   1  noname    0.077992
   33   H33        1.847497031     1.045521877     1.808571306       H   1  noname    0.120031
   34   H34       -2.146820744     0.450268547     0.102889062       H   1  noname    0.074741
   35   H35       -0.627651046    -1.696139566    -1.427075673       H   1  noname    0.095176
   36   H36       -1.210688998    -0.192330364    -2.137258766       H   1  noname    0.105050
   37   H37       -2.741614570    -2.387446919    -2.212790175       H   1  noname    0.097531
   38   H38       -3.490695782    -0.814751730    -1.955326672       H   1  noname    0.098140
   39   H39       -3.973697453    -1.238291007     0.317889152       H   1  noname    0.086881
   40   H40       -4.091069105    -2.869420067    -0.334187433       H   1  noname    0.104385
   41   H41       -1.641344018    -3.224103995     0.294297575       H   1  noname    0.077163
   42   H42       -2.671661872    -2.944081142     1.695773182       H   1  noname    0.103842
   43   H43       -1.831056716    -0.738631406     2.060884987       H   1  noname    0.094357
   44   H44       -0.399586228    -1.585557055     1.486011289       H   1  noname    0.102742


@<TRIPOS>BOND
    1      1      2    1
    2      2      3    1
    3      3      4    2
    4      3      5    am
    5      5      6    1
    6      6      7    1
    7      7      8    1
    8      8      9    1
    9      9     10    1
   10     10     11    1
   11      5     12    1
   12     12     13    1
   13     13     14    1
   14     14     15    1
   15     15     16    1
   16     16     17    1
   17     11      6    1
   18     17     12    1
   19      1     18    1
   20      1     19    1
   21      1     20    1
   22      2     21    1
   23      2     22    1
   24      6     23    1
   25      7     24    1
   26      7     25    1
   27      8     26    1
   28      8     27    1
   29      9     28    1
   30      9     29    1
   31     10     30    1
   32     10     31    1
   33     11     32    1
   34     11     33    1
   35     12     34    1
   36     13     35    1
   37     13     36    1
   38     14     37    1
   39     14     38    1
   40     15     39    1
   41     15     40    1
   42     16     41    1
   43     16     42    1
   44     17     43    1
   45     17     44    1
#
#	File Created by: Spartan'20 Export
#

@<TRIPOS>MOLECULE
M0156
15 14
SMALL
MULLIKEN_CHARGES


@<TRIPOS>ATOM
    1   C1        -2.403875906    -0.030996309     0.024143942     C.3   1  noname   -0.350994
    2   C2        -1.064042902    -0.208185041     0.735779088     C.3   1  noname   -0.175339
    3   C3         0.104081101    -0.272297370    -0.248120754     C.2   1  noname    0.246244
    4   O4         0.002161851    -0.794475012    -1.356487769     O.2   1  noname   -0.333784
    5   N5         1.273305177     0.275887768     0.210234595    N.am   1  noname   -0.226833
    6   C6         2.511322373     0.234386805    -0.543047571     C.3   1  noname   -0.264980
    7   H7        -3.239146228    -0.104870076     0.734177186       H   1  noname    0.115633
    8   H8        -2.522868998    -0.803939177    -0.745938906       H   1  noname    0.139480
    9   H9        -2.461032333     0.947373194    -0.474031609       H   1  noname    0.111428
   10   H10       -0.901609074     0.588221223     1.480323014       H   1  noname    0.087153
   11   H11       -1.058970569    -1.161959797     1.291544671       H   1  noname    0.113353
   12   H12        1.282216341     0.672957244     1.143179030       H   1  noname    0.206625
   13   H13        3.246122713    -0.442976386    -0.079484671       H   1  noname    0.123443
   14   H14        2.277231704    -0.136745918    -1.548317286       H   1  noname    0.161677
   15   H15        2.955104749     1.237618852    -0.623952959       H   1  noname    0.123395


@<TRIPOS>BOND
    1      1      2    1
    2      2      3    1
    3      3      4    2
    4      3      5    am
    5      5      6    1
    6      1      7    1
    7      1      8    1
    8      1      9    1
    9      2     10    1
   10      2     11    1
   11      5     12    1
   12      6     13    1
   13      6     14    1
   14      6     15    1
#
#	File Created by: Spartan'20 Export
#

@<TRIPOS>MOLECULE
M0157
17 16
SMALL
MULLIKEN_CHARGES


@<TRIPOS>ATOM
    1   C1        -2.867382128     0.150178198    -0.332916215     C.3   1  noname   -0.328237
    2   C2        -1.685182280    -0.353059892     0.486203902     C.3   1  noname   -0.175976
    3   C3        -0.373134493     0.296781109     0.095544976     C.2   1  noname    0.262444
    4   O4        -0.231967258     1.133005721    -0.775216266     O.2   1  noname   -0.289140
    5   O5         0.642782338    -0.185219568     0.862787343     O.3   1  noname   -0.182780
    6   C6         1.966589774     0.342931102     0.574713932     C.3   1  noname   -0.032521
    7   C7         2.632313232    -0.419694724    -0.556314665     C.3   1  noname   -0.363875
    8   H8        -3.796000760    -0.342570824    -0.013357713       H   1  noname    0.117577
    9   H9        -2.719363670    -0.049010039    -1.402764261       H   1  noname    0.120184
   10   H10       -2.993083182     1.235155522    -0.218466785       H   1  noname    0.121143
   11   H11       -1.556123840    -1.443198640     0.385259697       H   1  noname    0.118520
   12   H12       -1.834066222    -0.178621932     1.564402960       H   1  noname    0.118213
   13   H13        2.514698280     0.224433617     1.519260237       H   1  noname    0.113771
   14   H14        1.876866719     1.412231476     0.335897423       H   1  noname    0.114598
   15   H15        2.084380603    -0.275234511    -1.496796579       H   1  noname    0.143056
   16   H16        3.660089182    -0.053669588    -0.697633562       H   1  noname    0.118060
   17   H17        2.678583706    -1.494437028    -0.330604424       H   1  noname    0.116272


@<TRIPOS>BOND
    1      1      2    1
    2      2      3    1
    3      3      4    2
    4      3      5    1
    5      5      6    1
    6      6      7    1
    7      1      8    1
    8      1      9    1
    9      1     10    1
   10      2     11    1
   11      2     12    1
   12      6     13    1
   13      6     14    1
   14      7     15    1
   15      7     16    1
   16      7     17    1
#
#	File Created by: Spartan'20 Export
#

@<TRIPOS>MOLECULE
M0158
16 15
SMALL
MULLIKEN_CHARGES


@<TRIPOS>ATOM
    1   C1        -2.870912601    -0.261633210    -0.013800588     C.3   1  noname   -0.340183
    2   C2        -1.423214777     0.000583002    -0.423910731     C.3   1  noname   -0.134678
    3   C3        -0.429217010    -0.326567695     0.707367447     C.3   1  noname   -0.325811
    4   C4         0.960659789    -0.053635232     0.361979488     C.1   1  noname    0.006953
    5   C5         2.110156041     0.186054848     0.052006349     C.1   1  noname    0.075724
    6   C6         3.490136633     0.472066493    -0.310585366     C.3   1  noname   -0.433359
    7   H7        -3.154831170     0.350568099     0.856389112       H   1  noname    0.109718
    8   H8        -3.567669404    -0.023713289    -0.830171366       H   1  noname    0.122736
    9   H9        -3.025315463    -1.317149106     0.259091419       H   1  noname    0.109429
   10   H10       -1.161697424    -0.598256549    -1.310600688       H   1  noname    0.099886
   11   H11       -1.294380806     1.055191981    -0.714537393       H   1  noname    0.100010
   12   H12       -0.705222287     0.251445068     1.607731259       H   1  noname    0.114595
   13   H13       -0.537727590    -1.389505461     0.989072147       H   1  noname    0.115603
   14   H14        3.549722324     1.298569349    -1.035882969       H   1  noname    0.148108
   15   H15        4.083254734     0.761107230     0.571212570       H   1  noname    0.148503
   16   H16        3.976259010    -0.405125529    -0.765360690       H   1  noname    0.147752


@<TRIPOS>BOND
    1      1      2    1
    2      2      3    1
    3      3      4    1
    4      4      5    3
    5      5      6    1
    6      1      7    1
    7      1      8    1
    8      1      9    1
    9      2     10    1
   10      2     11    1
   11      3     12    1
   12      3     13    1
   13      6     14    1
   14      6     15    1
   15      6     16    1
#
#	File Created by: Spartan'20 Export
#

@<TRIPOS>MOLECULE
M0159
16 15
SMALL
MULLIKEN_CHARGES


@<TRIPOS>ATOM
    1   C1        -2.197337965    -0.558612128     0.565699359     C.3   1  noname   -0.335147
    2   C2        -0.752103228    -0.656973323     0.079011371     C.3   1  noname   -0.183051
    3   C3        -0.231252785     0.662008666    -0.492827227     C.3   1  noname   -0.157256
    4   C4         1.230602568     0.591228969    -0.980275740     C.3   1  noname   -0.179565
    5   C5         2.184825189     0.291201704     0.080445961     C.1   1  noname   -0.022072
    6   C6         2.960355911     0.047247758     0.979639794     C.1   1  noname   -0.178679
    7   H7        -2.877099299    -0.271665708    -0.251811305       H   1  noname    0.107406
    8   H8        -2.551620376    -1.516608168     0.972807449       H   1  noname    0.120996
    9   H9        -2.296764462     0.198178592     1.359083124       H   1  noname    0.111291
   10   H10       -0.669883464    -1.443215693    -0.691827749       H   1  noname    0.085751
   11   H11       -0.096758322    -0.970999255     0.907648739       H   1  noname    0.114761
   12   H12       -0.862529216     0.971410570    -1.342883765       H   1  noname    0.092536
   13   H13       -0.316890887     1.454864406     0.268751507       H   1  noname    0.095655
   14   H14        1.315946573    -0.176793235    -1.769478395       H   1  noname    0.116399
   15   H15        1.509399390     1.548447075    -1.452099600       H   1  noname    0.124363
   16   H16        3.651110373    -0.169720229     1.768116477       H   1  noname    0.153085


@<TRIPOS>BOND
    1      1      2    1
    2      2      3    1
    3      3      4    1
    4      4      5    1
    5      5      6    3
    6      1      7    1
    7      1      8    1
    8      1      9    1
    9      2     10    1
   10      2     11    1
   11      3     12    1
   12      3     13    1
   13      4     14    1
   14      4     15    1
   15      6     16    1
#
#	File Created by: Spartan'20 Export
#

@<TRIPOS>MOLECULE
M0160
21 20
SMALL
MULLIKEN_CHARGES


@<TRIPOS>ATOM
    1   C1        -3.000329265     0.010511891    -0.115360820     C.3   1  noname   -0.373653
    2   C2        -2.031256435     0.403056068    -1.233771941     C.3   1  noname   -0.122451
    3   C3        -0.669063782     0.904546201    -0.738920385     C.3   1  noname   -0.137487
    4   C4         0.143373198    -0.134526495     0.039356245     C.3   1  noname   -0.251641
    5   C5         1.539632398     0.372761787     0.433558292     C.3   1  noname   -0.098325
    6   C6         2.324561135    -0.631361136     1.222779657     C.2   1  noname   -0.081469
    7   C7         3.491329516    -1.164113522     0.848516019     C.2   1  noname   -0.261091
    8   H8        -2.630379348    -0.848288659     0.463327089       H   1  noname    0.119651
    9   H9        -3.149811814     0.845758172     0.587461981       H   1  noname    0.108142
   10   H10       -3.985096593    -0.265763730    -0.519550222       H   1  noname    0.119511
   11   H11       -2.494060206     1.189679268    -1.852439442       H   1  noname    0.097079
   12   H12       -1.876049885    -0.459279499    -1.905898410       H   1  noname    0.088314
   13   H13       -0.074299884     1.240955018    -1.605839666       H   1  noname    0.091126
   14   H14       -0.818621235     1.798651114    -0.106184003       H   1  noname    0.084093
   15   H15        0.251827572    -1.049774088    -0.568841813       H   1  noname    0.097025
   16   H16       -0.401542694    -0.434125290     0.950226486       H   1  noname    0.095834
   17   H17        2.101970092     0.655371842    -0.472721325       H   1  noname    0.087708
   18   H18        1.420518657     1.295526510     1.031747377       H   1  noname    0.094304
   19   H19        1.875701639    -0.952328835     2.171443246       H   1  noname    0.093442
   20   H20        3.971232436    -0.874492304    -0.090436479       H   1  noname    0.105063
   21   H21        4.010364499    -1.902764314     1.461548114       H   1  noname    0.113185


@<TRIPOS>BOND
    1      1      2    1
    2      2      3    1
    3      3      4    1
    4      4      5    1
    5      5      6    1
    6      6      7    2
    7      1      8    1
    8      1      9    1
    9      1     10    1
   10      2     11    1
   11      2     12    1
   12      3     13    1
   13      3     14    1
   14      4     15    1
   15      4     16    1
   16      5     17    1
   17      5     18    1
   18      6     19    1
   19      7     20    1
   20      7     21    1
#
#	File Created by: Spartan'20 Export
#

@<TRIPOS>MOLECULE
M0161
17 16
SMALL
MULLIKEN_CHARGES


@<TRIPOS>ATOM
    1   C1        -2.078738766     0.505900875    -0.623740004     C.3   1  noname   -0.372158
    2   C2        -1.335186074    -0.787184577    -0.281014344     C.3   1  noname   -0.123657
    3   C3         0.193118031    -0.669005395    -0.344239647     C.3   1  noname   -0.171459
    4   C4         0.791814592     0.286283468     0.691257838     C.3   1  noname   -0.188801
    5   C5         2.305296457     0.349414857     0.647965098     C.3   1  noname    0.022339
    6   F6         2.737728597     0.866475498    -0.589931770       F   1  noname   -0.215868
    7   H7        -3.166998921     0.348518148    -0.631407375       H   1  noname    0.119919
    8   H8        -1.786607281     0.875776028    -1.618958201       H   1  noname    0.113753
    9   H9        -1.869060631     1.306040448     0.101179768       H   1  noname    0.116390
   10   H10       -1.654076032    -1.580527781    -0.976961435       H   1  noname    0.099557
   11   H11       -1.633006778    -1.129424105     0.725917943       H   1  noname    0.084669
   12   H12        0.638959615    -1.668749987    -0.200875819       H   1  noname    0.088034
   13   H13        0.495434196    -0.338567237    -1.351738244       H   1  noname    0.105936
   14   H14        0.499048295    -0.029831074     1.709123778       H   1  noname    0.087467
   15   H15        0.399553694     1.306767202     0.554823993       H   1  noname    0.102706
   16   H16        2.756513084    -0.652389475     0.754829064       H   1  noname    0.088558
   17   H17        2.706207921     1.010503106     1.433769357       H   1  noname    0.102068


@<TRIPOS>BOND
    1      1      2    1
    2      2      3    1
    3      3      4    1
    4      4      5    1
    5      5      6    1
    6      1      7    1
    7      1      8    1
    8      1      9    1
    9      2     10    1
   10      2     11    1
   11      3     12    1
   12      3     13    1
   13      4     14    1
   14      4     15    1
   15      5     16    1
   16      5     17    1
#
#	File Created by: Spartan'20 Export
#

@<TRIPOS>MOLECULE
M0162
37 36
SMALL
MULLIKEN_CHARGES


@<TRIPOS>ATOM
    1   C1         3.708711686     1.506876226     0.332860188     C.3   1  noname   -0.374133
    2   C2         3.348734488     0.713067322    -0.924475961     C.3   1  noname   -0.170836
    3   C3         2.853097832    -0.714644860    -0.647367369     C.3   1  noname   -0.123416
    4   C4         1.566359472    -0.813183756     0.181695086     C.3   1  noname   -0.141916
    5   C5         0.340552720    -0.200706136    -0.507144367     C.3   1  noname   -0.213600
    6   N6        -0.871262945    -0.305074616     0.296299510     N.3   1  noname   -0.021506
    7   C7        -1.535356180    -1.613708482     0.224673675     C.3   1  noname   -0.009935
    8   C8        -2.475524526    -1.812781185    -0.979852308     C.3   1  noname   -0.366126
    9   C9        -2.249237264    -1.950415187     1.537945098     C.3   1  noname   -0.313411
   10   C10       -1.729023756     0.888866143     0.350271673     C.3   1  noname   -0.039144
   11   C11       -2.053690144     1.555296504    -1.002296427     C.3   1  noname   -0.322755
   12   C12       -1.130824833     1.920243373     1.316166497     C.3   1  noname   -0.309086
   13   H13        4.133931329     2.487958677     0.075893281       H   1  noname    0.118372
   14   H14        2.833449991     1.689354370     0.975150721       H   1  noname    0.120174
   15   H15        4.454359882     0.968577664     0.939341072       H   1  noname    0.108830
   16   H16        4.235340540     0.650634964    -1.577116544       H   1  noname    0.095111
   17   H17        2.591675992     1.265927014    -1.505661337       H   1  noname    0.098706
   18   H18        3.652821049    -1.271084400    -0.128764451       H   1  noname    0.093018
   19   H19        2.699999917    -1.231006576    -1.611173247       H   1  noname    0.085180
   20   H20        1.369970729    -1.874854584     0.404229188       H   1  noname    0.083440
   21   H21        1.692847590    -0.319529540     1.157745441       H   1  noname    0.099931
   22   H22        0.540233291     0.864114844    -0.695219116       H   1  noname    0.103678
   23   H23        0.217485459    -0.659223665    -1.514266661       H   1  noname    0.067543
   24   H24       -0.713912988    -2.342278939     0.117925942       H   1  noname    0.064680
   25   H25       -3.364817659    -1.168569017    -0.900872661       H   1  noname    0.113022
   26   H26       -2.825573374    -2.854900873    -1.029039584       H   1  noname    0.113739
   27   H27       -1.967874170    -1.585031596    -1.928714027       H   1  noname    0.121046
   28   H28       -2.649307689    -2.974749016     1.508022711       H   1  noname    0.108570
   29   H29       -3.099121691    -1.275886487     1.725459838       H   1  noname    0.101535
   30   H30       -1.553896508    -1.865269899     2.384162294       H   1  noname    0.114643
   31   H31       -2.684721862     0.552745876     0.784278516       H   1  noname    0.063928
   32   H32       -2.502771544     0.852766357    -1.716446403       H   1  noname    0.118517
   33   H33       -2.761075656     2.385291680    -0.854847634       H   1  noname    0.112057
   34   H34       -1.150669291     1.980266403    -1.466492130       H   1  noname    0.104382
   35   H35       -0.964320254     1.468392987     2.303038185       H   1  noname    0.113380
   36   H36       -0.161856829     2.291564439     0.945733264       H   1  noname    0.101572
   37   H37       -1.794732805     2.790953971     1.428858049       H   1  noname    0.104667


@<TRIPOS>BOND
    1      1      2    1
    2      2      3    1
    3      3      4    1
    4      4      5    1
    5      5      6    1
    6      6      7    1
    7      7      8    1
    8      7      9    1
    9      6     10    1
   10     10     11    1
   11     10     12    1
   12      1     13    1
   13      1     14    1
   14      1     15    1
   15      2     16    1
   16      2     17    1
   17      3     18    1
   18      3     19    1
   19      4     20    1
   20      4     21    1
   21      5     22    1
   22      5     23    1
   23      7     24    1
   24      8     25    1
   25      8     26    1
   26      8     27    1
   27      9     28    1
   28      9     29    1
   29      9     30    1
   30     10     31    1
   31     11     32    1
   32     11     33    1
   33     11     34    1
   34     12     35    1
   35     12     36    1
   36     12     37    1
#
#	File Created by: Spartan'20 Export
#

@<TRIPOS>MOLECULE
M0163
16 15
SMALL
MULLIKEN_CHARGES


@<TRIPOS>ATOM
    1   C1         2.114143448    -0.415385413     0.628452599     C.3   1  noname   -0.341502
    2   C2         0.656056416     0.042826102     0.661550486     C.3   1  noname   -0.163976
    3   C3         0.028879414     0.163161223    -0.727146569     C.3   1  noname   -0.188508
    4   C4        -1.430237897     0.646571923    -0.723589171     C.3   1  noname   -0.075235
    5   N5        -2.412984462    -0.205785676    -0.045333619     N.3   1  noname   -0.459957
    6   H6         2.539805671    -0.484817394     1.640246493       H   1  noname    0.119134
    7   H7         2.210329460    -1.406953977     0.159200663       H   1  noname    0.109595
    8   H8         2.737971356     0.283774791     0.050602138       H   1  noname    0.110389
    9   H9         0.586275647     1.018696312     1.174834996       H   1  noname    0.092722
   10   H10        0.069296683    -0.665454076     1.271538011       H   1  noname    0.067046
   11   H11        0.082163999    -0.815143911    -1.240671122       H   1  noname    0.083054
   12   H12        0.630200600     0.860984706    -1.337915851       H   1  noname    0.080048
   13   H13       -1.767305060     0.778138231    -1.764937206       H   1  noname    0.108190
   14   H14       -1.483335573     1.646847428    -0.259737833       H   1  noname    0.097786
   15   H15       -2.380732706    -1.152353808    -0.433000715       H   1  noname    0.199912
   16   H16       -2.180526995    -0.295106461     0.945906699       H   1  noname    0.206290


@<TRIPOS>BOND
    1      1      2    1
    2      2      3    1
    3      3      4    1
    4      4      5    1
    5      1      6    1
    6      1      7    1
    7      1      8    1
    8      2      9    1
    9      2     10    1
   10      3     11    1
   11      3     12    1
   12      4     13    1
   13      4     14    1
   14      5     15    1
   15      5     16    1
#
#	File Created by: Spartan'20 Export
#

@<TRIPOS>MOLECULE
M0164
26 26
SMALL
MULLIKEN_CHARGES


@<TRIPOS>ATOM
    1   C1         3.992994221     0.718405622    -0.070196884     C.3   1  noname   -0.335528
    2   C2         2.865463673    -0.281908584     0.184145869     C.3   1  noname   -0.152655
    3   C3         1.483825403     0.279695897    -0.157208889     C.3   1  noname   -0.181748
    4   C4         0.362941111    -0.722145517     0.111765591     C.3   1  noname   -0.115820
    5   N5        -0.946747702    -0.267238643    -0.329096538     N.3   1  noname   -0.068931
    6   C6        -1.982955146    -1.294490896    -0.216139396     C.3   1  noname   -0.107709
    7   C7        -3.284591681    -0.524717093    -0.472627139     C.3   1  noname   -0.152878
    8   C8        -2.967970616     0.921013457     0.004239424     C.3   1  noname   -0.137390
    9   C9        -1.485984156     0.870002018     0.420294179     C.3   1  noname   -0.151035
   10   H10        3.869976666     1.622000829     0.547476989       H   1  noname    0.109099
   11   H11        4.978116208     0.288050267     0.162301285       H   1  noname    0.119194
   12   H12        4.007736449     1.039525065    -1.123406739       H   1  noname    0.109864
   13   H13        3.041632139    -1.196716837    -0.408643070       H   1  noname    0.089168
   14   H14        2.881149504    -0.598895936     1.241486215       H   1  noname    0.089435
   15   H15        1.319160668     1.201629473     0.426738337       H   1  noname    0.090724
   16   H16        1.450104642     0.573598036    -1.220300169       H   1  noname    0.088319
   17   H17        0.587459312    -1.659030290    -0.427088504       H   1  noname    0.092110
   18   H18        0.347590869    -0.980271596     1.200267722       H   1  noname    0.056004
   19   H19       -1.991329577    -1.745697422     0.805673580       H   1  noname    0.047187
   20   H20       -1.802526041    -2.107883856    -0.935817965       H   1  noname    0.102104
   21   H21       -3.526192374    -0.531984944    -1.544481251       H   1  noname    0.088703
   22   H22       -4.134309079    -0.973013173     0.060250156       H   1  noname    0.087930
   23   H23       -3.604118803     1.235419051     0.843090777       H   1  noname    0.086825
   24   H24       -3.122335286     1.642588818    -0.809469488       H   1  noname    0.090537
   25   H25       -1.397920627     0.696582559     1.520039746       H   1  noname    0.051397
   26   H26       -0.941169780     1.795483695     0.186706162       H   1  noname    0.108128


@<TRIPOS>BOND
    1      1      2    1
    2      2      3    1
    3      3      4    1
    4      4      5    1
    5      5      6    1
    6      6      7    1
    7      7      8    1
    8      8      9    1
    9      9      5    1
   10      1     10    1
   11      1     11    1
   12      1     12    1
   13      2     13    1
   14      2     14    1
   15      3     15    1
   16      3     16    1
   17      4     17    1
   18      4     18    1
   19      6     19    1
   20      6     20    1
   21      7     21    1
   22      7     22    1
   23      8     23    1
   24      8     24    1
   25      9     25    1
   26      9     26    1
#
#	File Created by: Spartan'20 Export
#

@<TRIPOS>MOLECULE
M0165
27 26
SMALL
MULLIKEN_CHARGES


@<TRIPOS>ATOM
    1   C1        -4.093510260    -1.376465981     0.061612443     C.3   1  noname   -0.373045
    2   C2        -3.554967702     0.037348006     0.296458242     C.3   1  noname   -0.147903
    3   C3        -2.089485054     0.088998293     0.749424907     C.3   1  noname   -0.151661
    4   C4        -1.104533466    -0.358708614    -0.332353604     C.3   1  noname   -0.073556
    5   O5         0.256195567    -0.368854059     0.089868988     O.3   1  noname   -0.233240
    6   C6         0.835443190     0.926291817     0.222376730     C.3   1  noname   -0.047449
    7   C7         2.333001706     0.774853193     0.438488523     C.3   1  noname   -0.133428
    8   C8         3.065641957     0.134061405    -0.742518429     C.3   1  noname   -0.180151
    9   C9         4.570053566     0.006012168    -0.507478075     C.3   1  noname   -0.332739
   10   H10       -3.576304520    -1.887400664    -0.763490783       H   1  noname    0.116992
   11   H11       -3.972989400    -1.996880793     0.963214848       H   1  noname    0.112847
   12   H12       -5.164250233    -1.356554652    -0.188378331       H   1  noname    0.120279
   13   H13       -4.175140312     0.534654891     1.059740103       H   1  noname    0.099985
   14   H14       -3.673918497     0.635396776    -0.624108198       H   1  noname    0.090771
   15   H15       -1.946014554    -0.547601893     1.639294095       H   1  noname    0.089321
   16   H16       -1.845991538     1.118995194     1.054942950       H   1  noname    0.098750
   17   H17       -1.315908530    -1.394077254    -0.639370205       H   1  noname    0.110520
   18   H18       -1.219586220     0.285566443    -1.230264641       H   1  noname    0.069465
   19   H19        0.385224509     1.476185694     1.071500739       H   1  noname    0.091678
   20   H20        0.638384161     1.516932342    -0.698031715       H   1  noname    0.071404
   21   H21        2.500236995     0.176848886     1.350890401       H   1  noname    0.086122
   22   H22        2.750357002     1.776778824     0.640383968       H   1  noname    0.085654
   23   H23        2.627189913    -0.857053311    -0.935062837       H   1  noname    0.110097
   24   H24        2.879543136     0.734792204    -1.650273481       H   1  noname    0.080652
   25   H25        5.076991128    -0.454190961    -1.368122832       H   1  noname    0.118370
   26   H26        5.032880148     0.990496874    -0.334626879       H   1  noname    0.104644
   27   H27        4.781457309    -0.616424829     0.375883074       H   1  noname    0.109842


@<TRIPOS>BOND
    1      1      2    1
    2      2      3    1
    3      3      4    1
    4      4      5    1
    5      5      6    1
    6      6      7    1
    7      7      8    1
    8      8      9    1
    9      1     10    1
   10      1     11    1
   11      1     12    1
   12      2     13    1
   13      2     14    1
   14      3     15    1
   15      3     16    1
   16      4     17    1
   17      4     18    1
   18      6     19    1
   19      6     20    1
   20      7     21    1
   21      7     22    1
   22      8     23    1
   23      8     24    1
   24      9     25    1
   25      9     26    1
   26      9     27    1
#
#	File Created by: Spartan'20 Export
#

@<TRIPOS>MOLECULE
M0166
23 23
SMALL
MULLIKEN_CHARGES


@<TRIPOS>ATOM
    1   C1         3.445995731     0.448722927    -0.077035944     C.3   1  noname   -0.376655
    2   C2         2.672311314    -0.829790253     0.252056424     C.3   1  noname   -0.115247
    3   C3         1.192845038    -0.787551315    -0.146848134     C.3   1  noname   -0.190579
    4   C4         0.364157143     0.235830232     0.648447772     C.3   1  noname   -0.201908
    5   C5        -1.098061971     0.181176532     0.288972077     C.2   1  noname    0.228086
    6   C6        -1.700849378     1.178125123    -0.492246680     C.2   1  noname   -0.161854
    7   C7        -3.052587307     1.070712182    -0.814607458     C.2   1  noname   -0.091518
    8   C8        -3.766201245    -0.033158258    -0.349442267     C.2   1  noname   -0.064784
    9   C9        -3.084027074    -0.978548187     0.419605430     C.2   1  noname   -0.080135
   10   N10       -1.786679890    -0.886765408     0.737464678     N.2   1  noname   -0.171583
   11   H11        3.376735993     0.685714180    -1.150454816       H   1  noname    0.108596
   12   H12        4.511857436     0.346072936     0.173248888       H   1  noname    0.119859
   13   H13        3.062398930     1.316770116     0.479333769       H   1  noname    0.117027
   14   H14        2.748397214    -1.043493556     1.332320013       H   1  noname    0.087559
   15   H15        3.148663825    -1.681690082    -0.260828096       H   1  noname    0.098013
   16   H16        0.736100307    -1.778680438     0.001822593       H   1  noname    0.112646
   17   H17        1.108770488    -0.561254860    -1.224769811       H   1  noname    0.088083
   18   H18        0.744763535     1.254392159     0.480109775       H   1  noname    0.098938
   19   H19        0.465510436     0.015072682     1.723860473       H   1  noname    0.091641
   20   H20       -1.111146556     2.029573567    -0.837478949       H   1  noname    0.103413
   21   H21       -3.542163160     1.838500224    -1.417229496       H   1  noname    0.112524
   22   H22       -4.826562021    -0.161688084    -0.571907032       H   1  noname    0.109347
   23   H23       -3.610228789    -1.858042422     0.805606793       H   1  noname    0.105798


@<TRIPOS>BOND
    1      1      2    1
    2      2      3    1
    3      3      4    1
    4      4      5    1
    5      5      6    2
    6      6      7    1
    7      7      8    2
    8      8      9    1
    9      9     10    2
   10     10      5    1
   11      1     11    1
   12      1     12    1
   13      1     13    1
   14      2     14    1
   15      2     15    1
   16      3     16    1
   17      3     17    1
   18      4     18    1
   19      4     19    1
   20      6     20    1
   21      7     21    1
   22      8     22    1
   23      9     23    1
#
#	File Created by: Spartan'20 Export
#

@<TRIPOS>MOLECULE
M0167
13 12
SMALL
MULLIKEN_CHARGES


@<TRIPOS>ATOM
    1   C1        -1.476957415    -0.555853244    -0.167071499     C.3   1  noname   -0.331851
    2   C2        -0.429356478     0.469734668    -0.598888068     C.3   1  noname   -0.159950
    3   C3         0.728256330     0.611839699     0.392629745     C.3   1  noname   -0.095814
    4   N4         1.480749294    -0.646535751     0.502716935     N.3   1  noname   -0.482280
    5   H5        -1.010797278    -1.536650376    -0.002479023       H   1  noname    0.124429
    6   H6        -2.266898897    -0.665187107    -0.924042781       H   1  noname    0.113504
    7   H7        -1.954807005    -0.251558679     0.777130472       H   1  noname    0.098838
    8   H8        -0.896867643     1.459536480    -0.732336664       H   1  noname    0.092018
    9   H9        -0.017961346     0.193239690    -1.586405724       H   1  noname    0.083457
   10   H10        0.319578313     0.842743083     1.391400575       H   1  noname    0.088603
   11   H11        1.352876233     1.480831589     0.097953496       H   1  noname    0.091878
   12   H12        1.972816688    -0.830891544    -0.375379067       H   1  noname    0.204417
   13   H13        2.199369205    -0.571248507     1.224771603       H   1  noname    0.208357


@<TRIPOS>BOND
    1      1      2    1
    2      2      3    1
    3      3      4    1
    4      1      5    1
    5      1      6    1
    6      1      7    1
    7      2      8    1
    8      2      9    1
    9      3     10    1
   10      3     11    1
   11      4     12    1
   12      4     13    1
#
#	File Created by: Spartan'20 Export
#

@<TRIPOS>MOLECULE
M0168
31 30
SMALL
MULLIKEN_CHARGES


@<TRIPOS>ATOM
    1   C1         2.897133137    -2.743691778    -0.099505929     C.3   1  noname   -0.349757
    2   C2         2.319429923    -1.351907957    -0.358736874     C.3   1  noname   -0.127680
    3   C3         0.802734061    -1.322322373    -0.156992915     C.3   1  noname   -0.151985
    4   N4         0.183707945    -0.048188400    -0.519308189     N.3   1  noname   -0.022776
    5   C5        -1.233999899    -0.178569275    -0.860022038     C.3   1  noname   -0.193831
    6   C6        -2.206558667    -0.571034904     0.266660914     C.3   1  noname   -0.169992
    7   C7        -3.641338642    -0.683397424    -0.247690789     C.3   1  noname   -0.345660
    8   C8         0.483175820     1.019763425     0.434101177     C.3   1  noname   -0.155985
    9   C9         0.059013018     2.409866251    -0.041541189     C.3   1  noname   -0.157627
   10   C10        0.620642212     3.515081651     0.852646426     C.3   1  noname   -0.348776
   11   H11        2.671419005    -3.081972822     0.923960347       H   1  noname    0.109047
   12   H12        2.474591121    -3.487493507    -0.792853581       H   1  noname    0.110384
   13   H13        3.989509411    -2.757443911    -0.220805592       H   1  noname    0.121558
   14   H14        2.538196351    -1.022789505    -1.387127062       H   1  noname    0.090813
   15   H15        2.809130949    -0.628400801     0.312184741       H   1  noname    0.085768
   16   H16        0.355183771    -2.097207590    -0.802672239       H   1  noname    0.095686
   17   H17        0.573410920    -1.625618127     0.891703848       H   1  noname    0.063748
   18   H18       -1.570863919     0.773418384    -1.301672211       H   1  noname    0.111220
   19   H19       -1.303222122    -0.927981854    -1.668042792       H   1  noname    0.101104
   20   H20       -1.892686643    -1.528649215     0.712889518       H   1  noname    0.100955
   21   H21       -2.164469777     0.176463405     1.076482342       H   1  noname    0.096097
   22   H22       -4.346250089    -0.931202652     0.558858123       H   1  noname    0.120952
   23   H23       -3.974288532     0.263602997    -0.701205588       H   1  noname    0.109986
   24   H24       -3.729330402    -1.465111530    -1.018250185       H   1  noname    0.109751
   25   H25        0.042752028     0.827220182     1.441144828       H   1  noname    0.071037
   26   H26        1.574197574     1.031375448     0.583986079       H   1  noname    0.090784
   27   H27       -1.040133829     2.486244210    -0.062736086       H   1  noname    0.095048
   28   H28        0.404315633     2.541287720    -1.079981383       H   1  noname    0.098224
   29   H29        0.313126144     3.374617312     1.900741755       H   1  noname    0.109570
   30   H30        1.721197957     3.526964034     0.829856940       H   1  noname    0.113166
   31   H31        0.270275543     4.507078607     0.533927605       H   1  noname    0.121469


@<TRIPOS>BOND
    1      1      2    1
    2      2      3    1
    3      3      4    1
    4      4      5    1
    5      5      6    1
    6      6      7    1
    7      4      8    1
    8      8      9    1
    9      9     10    1
   10      1     11    1
   11      1     12    1
   12      1     13    1
   13      2     14    1
   14      2     15    1
   15      3     16    1
   16      3     17    1
   17      5     18    1
   18      5     19    1
   19      6     20    1
   20      6     21    1
   21      7     22    1
   22      7     23    1
   23      7     24    1
   24      8     25    1
   25      8     26    1
   26      9     27    1
   27      9     28    1
   28     10     29    1
   29     10     30    1
   30     10     31    1
#
#	File Created by: Spartan'20 Export
#

@<TRIPOS>MOLECULE
M0169
22 21
SMALL
MULLIKEN_CHARGES


@<TRIPOS>ATOM
    1   C1         3.670703748     1.021982020     0.233555839     C.3   1  noname   -0.351246
    2   C2         2.217153424     0.802054576     0.649648245     C.3   1  noname   -0.130234
    3   C3         1.517716722    -0.265040404    -0.197925096     C.3   1  noname   -0.088960
    4   N4         0.173174683    -0.523925772     0.274189512     N.2   1  noname   -0.219676
    5   C5        -0.789004716    -0.345265941    -0.552461472     C.2   1  noname   -0.002371
    6   N6        -2.102656471    -0.618904750    -0.268395892   N.pl3   1  noname    0.012793
    7   C7        -3.155006417    -0.088626627    -1.107738853     C.3   1  noname   -0.273191
    8   C8        -2.475741496    -1.032959109     1.069978811     C.3   1  noname   -0.279857
    9   H9         3.742653875     1.347052054    -0.816327996       H   1  noname    0.107180
   10   H10        4.256714141     0.094772674     0.331938781       H   1  noname    0.108399
   11   H11        4.156143773     1.789526858     0.853245601       H   1  noname    0.118492
   12   H12        2.159929216     0.496911437     1.706888271       H   1  noname    0.090572
   13   H13        1.649225512     1.744149181     0.569470417       H   1  noname    0.083622
   14   H14        1.540459410     0.042807392    -1.268036589       H   1  noname    0.041984
   15   H15        2.102218573    -1.202065502    -0.130641381       H   1  noname    0.087396
   16   H16       -0.637022822     0.019097632    -1.588548612       H   1  noname    0.047721
   17   H17       -3.586548092     0.846982456    -0.701694098       H   1  noname    0.114827
   18   H18       -2.760582263     0.122058380    -2.111052521       H   1  noname    0.123770
   19   H19       -3.970208450    -0.823054464    -1.203999372       H   1  noname    0.125800
   20   H20       -3.355226369    -1.692649708     1.019744002       H   1  noname    0.115939
   21   H21       -2.723068781    -0.169453109     1.715980517       H   1  noname    0.110898
   22   H22       -1.631027200    -1.565449275     1.522181888       H   1  noname    0.151920


@<TRIPOS>BOND
    1      1      2    1
    2      2      3    1
    3      3      4    1
    4      4      5    2
    5      5      6    1
    6      6      7    1
    7      6      8    1
    8      1      9    1
    9      1     10    1
   10      1     11    1
   11      2     12    1
   12      2     13    1
   13      3     14    1
   14      3     15    1
   15      5     16    1
   16      7     17    1
   17      7     18    1
   18      7     19    1
   19      8     20    1
   20      8     21    1
   21      8     22    1
#
#	File Created by: Spartan'20 Export
#

@<TRIPOS>MOLECULE
M0170
10 9
SMALL
MULLIKEN_CHARGES


@<TRIPOS>ATOM
    1   C1        -0.212534790     0.000049506    -1.059042689     C.3   1  noname   -0.343303
    2   C2         0.615259053     0.000048477     0.229567777     C.3   1  noname   -0.096519
    3   N3        -0.146120675     0.000004450     1.484437216     N.3   1  noname   -0.458210
    4   H4        -0.860433864     0.889870520    -1.109772411       H   1  noname    0.103389
    5   H5        -0.860902306    -0.889444055    -1.109472690       H   1  noname    0.103373
    6   H6         0.428398345    -0.000283208    -1.955500584       H   1  noname    0.104890
    7   H7         1.280453425    -0.879559143     0.244685770       H   1  noname    0.104418
    8   H8         1.280419844     0.879681560     0.244682092       H   1  noname    0.104418
    9   H9        -0.762521671     0.816842061     1.515091912       H   1  noname    0.201045
   10   H10       -0.762017360    -0.817210168     1.515323607       H   1  noname    0.201050


@<TRIPOS>BOND
    1      1      2    1
    2      2      3    1
    3      1      4    1
    4      1      5    1
    5      1      6    1
    6      2      7    1
    7      2      8    1
    8      3      9    1
    9      3     10    1
#
#	File Created by: Spartan'20 Export
#

@<TRIPOS>MOLECULE
M0171
28 27
SMALL
MULLIKEN_CHARGES


@<TRIPOS>ATOM
    1   C1         0.629458710     2.580485164    -0.496929060     C.3   1  noname   -0.312426
    2   C2         1.070765157     1.118823169    -0.594675980     C.3   1  noname   -0.158079
    3   N3         0.342252008     0.205153834     0.282488897     N.3   1  noname   -0.050238
    4   C4        -1.082415666    -0.046601797    -0.041912268     C.3   1  noname    0.002039
    5   C5        -1.429342559    -0.030694608    -1.539665167     C.3   1  noname   -0.362674
    6   C6        -2.013571910     0.886030526     0.748036533     C.3   1  noname   -0.313272
    7   C7         1.117779998    -0.999796351     0.636098157     C.3   1  noname   -0.030706
    8   C8         1.210497052    -2.075490976    -0.463167386     C.3   1  noname   -0.353160
    9   C9         0.636692811    -1.606454914     1.958339082     C.3   1  noname   -0.302558
   10   H10        0.609763900     2.907360795     0.552467383       H   1  noname    0.108741
   11   H11       -0.367390432     2.750967434    -0.926057950       H   1  noname    0.106281
   12   H12        1.334522206     3.218647718    -1.050939537       H   1  noname    0.110974
   13   H13        2.127277939     1.065119994    -0.286799076       H   1  noname    0.091581
   14   H14        1.053382047     0.808478952    -1.662548261       H   1  noname    0.085069
   15   H15       -1.296216763    -1.066152254     0.316168955       H   1  noname    0.064631
   16   H16       -2.485379441    -0.305084469    -1.678159468       H   1  noname    0.114626
   17   H17       -0.818432834    -0.742654017    -2.111888659       H   1  noname    0.127628
   18   H18       -1.289503967     0.967427880    -1.978584244       H   1  noname    0.113940
   19   H19       -1.958870228     1.921803921     0.385010204       H   1  noname    0.101643
   20   H20       -1.736695162     0.884206294     1.810729226       H   1  noname    0.113077
   21   H21       -3.060145507     0.555139038     0.657233291       H   1  noname    0.101172
   22   H22        2.141769394    -0.629568949     0.816776273       H   1  noname    0.063073
   23   H23        0.228880113    -2.534562599    -0.658202423       H   1  noname    0.110339
   24   H24        1.587001926    -1.656042692    -1.407665997       H   1  noname    0.123736
   25   H25        1.894492680    -2.881234542    -0.156682306       H   1  noname    0.113128
   26   H26        0.612159259    -0.838871310     2.743914420       H   1  noname    0.111875
   27   H27        1.312517062    -2.415285382     2.272780070       H   1  noname    0.110506
   28   H28       -0.371247791    -2.041149858     1.873835293       H   1  noname    0.101636


@<TRIPOS>BOND
    1      1      2    1
    2      2      3    1
    3      3      4    1
    4      4      5    1
    5      4      6    1
    6      3      7    1
    7      7      8    1
    8      7      9    1
    9      1     10    1
   10      1     11    1
   11      1     12    1
   12      2     13    1
   13      2     14    1
   14      4     15    1
   15      5     16    1
   16      5     17    1
   17      5     18    1
   18      6     19    1
   19      6     20    1
   20      6     21    1
   21      7     22    1
   22      8     23    1
   23      8     24    1
   24      8     25    1
   25      9     26    1
   26      9     27    1
   27      9     28    1
#
#	File Created by: Spartan'20 Export
#

@<TRIPOS>MOLECULE
M0172
16 15
SMALL
MULLIKEN_CHARGES


@<TRIPOS>ATOM
    1   C1         1.973402328     0.424487918    -0.189394245     C.3   1  noname   -0.345813
    2   C2         0.603195087     0.607882410     0.456642178     C.3   1  noname   -0.082336
    3   N3        -0.322601494    -0.492609132     0.185744510     N.3   1  noname   -0.101380
    4   C4        -1.493495138    -0.416841335     1.046529330     C.3   1  noname   -0.278606
    5   C5        -0.720825467    -0.554570187    -1.213332121     C.3   1  noname   -0.291661
    6   H6         2.658555672     1.215716561     0.147790112       H   1  noname    0.114420
    7   H7         2.399748168    -0.549263066     0.090822560       H   1  noname    0.114224
    8   H8         1.929250851     0.478241412    -1.286384048       H   1  noname    0.114249
    9   H9         0.729637285     0.660657009     1.550025088       H   1  noname    0.097577
   10   H10        0.166744602     1.586925900     0.142181879       H   1  noname    0.058289
   11   H11       -2.146186832    -1.282373550     0.860599101       H   1  noname    0.119536
   12   H12       -2.097530878     0.506382680     0.883476931       H   1  noname    0.083821
   13   H13       -1.186158328    -0.440665366     2.102282809       H   1  noname    0.120329
   14   H14        0.154375323    -0.697340578    -1.860765239       H   1  noname    0.124694
   15   H15       -1.255281147     0.364853436    -1.550187688       H   1  noname    0.083290
   16   H16       -1.392830031    -1.411484113    -1.366031157       H   1  noname    0.120000


@<TRIPOS>BOND
    1      1      2    1
    2      2      3    1
    3      3      4    1
    4      3      5    1
    5      1      6    1
    6      1      7    1
    7      1      8    1
    8      2      9    1
    9      2     10    1
   10      4     11    1
   11      4     12    1
   12      4     13    1
   13      5     14    1
   14      5     15    1
   15      5     16    1
#
#	File Created by: Spartan'20 Export
#

@<TRIPOS>MOLECULE
M0173
42 43
SMALL
MULLIKEN_CHARGES


@<TRIPOS>ATOM
    1   C1         0.475635341     1.432494243    -3.015651988     C.3   1  noname   -0.321444
    2   C2        -0.075267718     0.272916227    -2.183842623     C.3   1  noname   -0.102892
    3   N3        -0.003771294     0.525256242    -0.747115875     N.3   1  noname   -0.001073
    4   C4        -1.126450996     0.015265965     0.055561865     C.3   1  noname   -0.125834
    5   C5        -1.549161326    -1.447868299    -0.205457175     C.3   1  noname   -0.148920
    6   C6        -2.692488835    -1.874993169     0.722821819     C.3   1  noname   -0.161576
    7   C7        -3.898137321    -0.941092685     0.593210971     C.3   1  noname   -0.143513
    8   C8        -3.494099421     0.512751120     0.852214150     C.3   1  noname   -0.160607
    9   C9        -2.345201751     0.946575087    -0.064282780     C.3   1  noname   -0.104616
   10   C10        1.340795369     0.374898786    -0.178928195     C.3   1  noname   -0.048007
   11   C11        1.566138231     1.349213740     1.000917342     C.3   1  noname   -0.198002
   12   C12        2.736198109     0.917820813     1.903225107     C.3   1  noname   -0.111379
   13   C13        3.829857196     0.237378888     1.077279871     C.3   1  noname   -0.167016
   14   C14        3.307839369    -1.086498930     0.475397902     C.3   1  noname   -0.168400
   15   C15        1.784879525    -1.048286862     0.223950792     C.3   1  noname   -0.223390
   16   H16        0.385874119     1.213772076    -4.090785019       H   1  noname    0.104577
   17   H17        1.539331667     1.621070243    -2.808286160       H   1  noname    0.107162
   18   H18       -0.078537784     2.355472586    -2.794086281       H   1  noname    0.108466
   19   H19       -1.131987217     0.132072464    -2.453458784       H   1  noname    0.101694
   20   H20        0.439998805    -0.669834848    -2.471999846       H   1  noname    0.067414
   21   H21       -0.794707557     0.066809882     1.108354976       H   1  noname    0.046617
   22   H22       -1.884068322    -1.553192248    -1.252046799       H   1  noname    0.078695
   23   H23       -0.690024765    -2.122544227    -0.080475290       H   1  noname    0.104604
   24   H24       -2.334159347    -1.862607941     1.768509696       H   1  noname    0.079007
   25   H25       -2.985640454    -2.915207970     0.507685729       H   1  noname    0.096656
   26   H26       -4.700051653    -1.248200130     1.283441552       H   1  noname    0.094694
   27   H27       -4.312330993    -1.025388807    -0.428063266       H   1  noname    0.073286
   28   H28       -4.358313907     1.183624152     0.722071392       H   1  noname    0.096273
   29   H29       -3.175274423     0.616795801     1.905345944       H   1  noname    0.078727
   30   H30       -2.699100672     0.950451042    -1.111482324       H   1  noname    0.069801
   31   H31       -2.022644492     1.974417860     0.161415156       H   1  noname    0.092704
   32   H32        2.026521070     0.686361543    -0.984350580       H   1  noname    0.046344
   33   H33        1.746160501     2.353966810     0.586822952       H   1  noname    0.088506
   34   H34        0.643701738     1.427670244     1.596261027       H   1  noname    0.089552
   35   H35        3.137014026     1.787663387     2.445708050       H   1  noname    0.096929
   36   H36        2.383052416     0.213214439     2.675658371       H   1  noname    0.072783
   37   H37        4.139569550     0.921809876     0.269194619       H   1  noname    0.081774
   38   H38        4.728907252     0.052557374     1.684699870       H   1  noname    0.099297
   39   H39        3.834427806    -1.293529892    -0.469971357       H   1  noname    0.091149
   40   H40        3.544692937    -1.924748384     1.149879479       H   1  noname    0.091732
   41   H41        1.241586883    -1.356962235     1.132706050       H   1  noname    0.094429
   42   H42        1.519238336    -1.771344263    -0.562050338       H   1  noname    0.104520


@<TRIPOS>BOND
    1      1      2    1
    2      2      3    1
    3      3      4    1
    4      4      5    1
    5      5      6    1
    6      6      7    1
    7      7      8    1
    8      8      9    1
    9      3     10    1
   10     10     11    1
   11     11     12    1
   12     12     13    1
   13     13     14    1
   14     14     15    1
   15      9      4    1
   16     15     10    1
   17      1     16    1
   18      1     17    1
   19      1     18    1
   20      2     19    1
   21      2     20    1
   22      4     21    1
   23      5     22    1
   24      5     23    1
   25      6     24    1
   26      6     25    1
   27      7     26    1
   28      7     27    1
   29      8     28    1
   30      8     29    1
   31      9     30    1
   32      9     31    1
   33     10     32    1
   34     11     33    1
   35     11     34    1
   36     12     35    1
   37     12     36    1
   38     13     37    1
   39     13     38    1
   40     14     39    1
   41     14     40    1
   42     15     41    1
   43     15     42    1
#
#	File Created by: Spartan'20 Export
#

@<TRIPOS>MOLECULE
M0174
21 20
SMALL
MULLIKEN_CHARGES


@<TRIPOS>ATOM
    1   C1         0.483233446     2.550919723     0.119784180     C.3   1  noname   -0.359618
    2   C2        -0.355815879     1.465154341    -0.554466685     C.3   1  noname   -0.112365
    3   N3         0.077664556     0.112399652    -0.196379216   N.pl3   1  noname    0.025246
    4   C4        -0.545406934    -0.498633372     0.974692670     C.3   1  noname   -0.191237
    5   C5        -1.866599322    -1.205823991     0.662996343     C.3   1  noname   -0.310643
    6   C6         1.058108088    -0.480418667    -0.955507621     C.2   1  noname    0.204493
    7   O7         1.571231924     0.101852812    -1.913871997     O.2   1  noname   -0.335951
    8   C8         1.494297988    -1.885497990    -0.564407952     C.3   1  noname   -0.397173
    9   H9         0.437445841     2.472626801     1.216881822       H   1  noname    0.102123
   10   H10        1.532186496     2.460848510    -0.193261224       H   1  noname    0.144060
   11   H11        0.122508818     3.550959478    -0.163502620       H   1  noname    0.115119
   12   H12       -0.285789599     1.562200705    -1.646177933       H   1  noname    0.127969
   13   H13       -1.416831704     1.564406105    -0.275312556       H   1  noname    0.101063
   14   H14       -0.713298256     0.298829666     1.716986036       H   1  noname    0.114561
   15   H15        0.161162667    -1.198409997     1.440842626       H   1  noname    0.123904
   16   H16       -2.313908645    -1.618415936     1.579894776       H   1  noname    0.116654
   17   H17       -2.592238619    -0.512434553     0.213658337       H   1  noname    0.116473
   18   H18       -1.708050471    -2.031754909    -0.045006025       H   1  noname    0.114194
   19   H19        2.136892469    -2.262543604    -1.366310855       H   1  noname    0.142042
   20   H20        2.074626487    -1.872354721     0.371460690       H   1  noname    0.134739
   21   H21        0.648580649    -2.573910053    -0.422992797       H   1  noname    0.124509


@<TRIPOS>BOND
    1      1      2    1
    2      2      3    1
    3      3      4    1
    4      4      5    1
    5      3      6    1
    6      6      7    2
    7      6      8    1
    8      1      9    1
    9      1     10    1
   10      1     11    1
   11      2     12    1
   12      2     13    1
   13      4     14    1
   14      4     15    1
   15      5     16    1
   16      5     17    1
   17      5     18    1
   18      8     19    1
   19      8     20    1
   20      8     21    1
#
#	File Created by: Spartan'20 Export
#

@<TRIPOS>MOLECULE
M0175
32 31
SMALL
MULLIKEN_CHARGES


@<TRIPOS>ATOM
    1   C1        -2.806786217     2.007696450     0.652630599     C.3   1  noname   -0.368974
    2   C2        -1.948910009     0.885684088     1.242270491     C.3   1  noname   -0.099629
    3   N3        -1.082025891     0.201603144     0.278057174   N.pl3   1  noname   -0.030330
    4   C4        -1.742727973    -0.760339746    -0.605764459     C.3   1  noname   -0.166706
    5   C5        -2.051777729    -2.106928244     0.050694379     C.3   1  noname   -0.337834
    6   C6         0.098162252     0.858325174    -0.055861723     C.2   1  noname    0.230301
    7   O7         0.312391724     2.022154899     0.304886119     O.2   1  noname   -0.369120
    8   N8         1.027095279     0.140246407    -0.813515270    N.am   1  noname   -0.055127
    9   C9         1.348043036    -1.266884986    -0.532224864     C.3   1  noname   -0.150818
   10   C10        1.667989933    -1.574232839     0.933325718     C.3   1  noname   -0.347911
   11   C11        2.104037723     0.940901123    -1.407971854     C.3   1  noname   -0.118438
   12   C12        3.311955784     1.199716400    -0.504062965     C.3   1  noname   -0.370534
   13   H13       -3.448221096     2.441304684     1.434452873       H   1  noname    0.110771
   14   H14       -3.466491550     1.645860506    -0.150035336       H   1  noname    0.099638
   15   H15       -2.160893731     2.798456082     0.251355484       H   1  noname    0.150668
   16   H16       -2.588532326     0.116182851     1.703179199       H   1  noname    0.092259
   17   H17       -1.303698748     1.293860391     2.031377950       H   1  noname    0.113946
   18   H18       -2.688082809    -0.314027107    -0.966006749       H   1  noname    0.096990
   19   H19       -1.119121947    -0.889920170    -1.499401615       H   1  noname    0.143276
   20   H20       -2.552814275    -2.772834009    -0.667601459       H   1  noname    0.116591
   21   H21       -2.722529637    -1.989871185     0.914333758       H   1  noname    0.114017
   22   H22       -1.138708846    -2.605777342     0.403229367       H   1  noname    0.124387
   23   H23        0.542217909    -1.932074157    -0.879483352       H   1  noname    0.107109
   24   H24        2.218950701    -1.510696849    -1.158920179       H   1  noname    0.113948
   25   H25        1.916537925    -2.640132328     1.049572877       H   1  noname    0.112707
   26   H26        0.807158543    -1.353735472     1.579739472       H   1  noname    0.130402
   27   H27        2.520763796    -0.980769494     1.288912584       H   1  noname    0.123557
   28   H28        2.421339459     0.423513616    -2.329013204       H   1  noname    0.105811
   29   H29        1.663116332     1.901630751    -1.703771492       H   1  noname    0.114581
   30   H30        4.035762604     1.846547543    -1.022287638       H   1  noname    0.111075
   31   H31        3.834649020     0.268765339    -0.237774010       H   1  noname    0.106807
   32   H32        2.991150763     1.705774480     0.415678122       H   1  noname    0.147244


@<TRIPOS>BOND
    1      1      2    1
    2      2      3    1
    3      3      4    1
    4      4      5    1
    5      3      6    1
    6      6      7    2
    7      6      8    am
    8      8      9    1
    9      9     10    1
   10      8     11    1
   11     11     12    1
   12      1     13    1
   13      1     14    1
   14      1     15    1
   15      2     16    1
   16      2     17    1
   17      4     18    1
   18      4     19    1
   19      5     20    1
   20      5     21    1
   21      5     22    1
   22      9     23    1
   23      9     24    1
   24     10     25    1
   25     10     26    1
   26     10     27    1
   27     11     28    1
   28     11     29    1
   29     12     30    1
   30     12     31    1
   31     12     32    1
#
#	File Created by: Spartan'20 Export
#

@<TRIPOS>MOLECULE
M0176
27 27
SMALL
MULLIKEN_CHARGES


@<TRIPOS>ATOM
    1   C1        -3.115782533    -1.016620726    -0.906387123     C.3   1  noname   -0.368695
    2   C2        -2.474590560    -0.429432929     0.351427201     C.3   1  noname   -0.105293
    3   N3        -1.057525168    -0.098326607     0.165578820   N.pl3   1  noname    0.011540
    4   C4        -0.748847527     1.212902494    -0.403611648     C.3   1  noname   -0.155021
    5   C5        -0.873011773     2.366498983     0.590980493     C.3   1  noname   -0.326487
    6   C6        -0.150698270    -1.120339715     0.296847135     C.2   1  noname    0.183221
    7   O7        -0.489479755    -2.275775427     0.570678533     O.2   1  noname   -0.315619
    8   C8         1.308297983    -0.805174579     0.109296859     C.2   1  noname    0.128628
    9   C9         2.020155739     0.058285585     0.947344594     C.2   1  noname   -0.181118
   10   C10        3.392999690     0.204718859     0.754813334     C.2   1  noname   -0.046954
   11   C11        4.002734352    -0.506734017    -0.280207191     C.2   1  noname   -0.059981
   12   N12        3.340035539    -1.345674731    -1.091911991     N.2   1  noname   -0.125893
   13   C13        2.027632875    -1.493624418    -0.880650278     C.2   1  noname   -0.116724
   14   H14       -3.049245637    -0.320972121    -1.756406465       H   1  noname    0.105833
   15   H15       -4.180208824    -1.227680651    -0.728438226       H   1  noname    0.118429
   16   H16       -2.617775682    -1.956211477    -1.178721459       H   1  noname    0.148443
   17   H17       -2.540301592    -1.151024307     1.176472531       H   1  noname    0.127997
   18   H18       -2.994522668     0.489274075     0.661428478       H   1  noname    0.097541
   19   H19       -1.428355603     1.383501184    -1.257618249       H   1  noname    0.105906
   20   H20        0.266041144     1.178549432    -0.819164255       H   1  noname    0.145229
   21   H21       -0.157897532     2.258232945     1.418497997       H   1  noname    0.107138
   22   H22       -0.670184577     3.322452600     0.086859922       H   1  noname    0.121395
   23   H23       -1.881835125     2.425282746     1.023389245       H   1  noname    0.115466
   24   H24        1.508924531     0.595334795     1.748998703       H   1  noname    0.117641
   25   H25        3.983716375     0.859130860     1.397843075       H   1  noname    0.112817
   26   H26        5.076522427    -0.406447675    -0.465732601       H   1  noname    0.114215
   27   H27        1.503202173    -2.200125179    -1.531607431       H   1  noname    0.122900


@<TRIPOS>BOND
    1      1      2    1
    2      2      3    1
    3      3      4    1
    4      4      5    1
    5      3      6    1
    6      6      7    2
    7      6      8    1
    8      8      9    2
    9      9     10    1
   10     10     11    2
   11     11     12    1
   12     12     13    2
   13     13      8    1
   14      1     14    1
   15      1     15    1
   16      1     16    1
   17      2     17    1
   18      2     18    1
   19      4     19    1
   20      4     20    1
   21      5     21    1
   22      5     22    1
   23      5     23    1
   24      9     24    1
   25     10     25    1
   26     11     26    1
   27     13     27    1
#
#	File Created by: Spartan'20 Export
#

@<TRIPOS>MOLECULE
M0177
22 21
SMALL
MULLIKEN_CHARGES


@<TRIPOS>ATOM
    1   C1        -1.023908491     2.243031072    -0.410929249     C.3   1  noname   -0.325644
    2   C2        -0.080978696     1.401359349     0.444988973     C.3   1  noname   -0.107818
    3   N3        -0.000288444     0.003325322     0.010567743     N.3   1  noname   -0.098842
    4   C4         1.250656375    -0.630758522     0.437937921     C.3   1  noname   -0.105767
    5   C5         2.446816965    -0.233445737    -0.422562836     C.3   1  noname   -0.324664
    6   C6        -1.174043709    -0.766187816     0.434847132     C.3   1  noname   -0.108290
    7   C7        -1.415976706    -2.012456088    -0.412709832     C.3   1  noname   -0.325716
    8   H8        -0.703657590     2.224112254    -1.462130440       H   1  noname    0.110477
    9   H9        -2.060559061     1.877974774    -0.367519586       H   1  noname    0.105675
   10   H10       -1.029110334     3.286595116    -0.062697097       H   1  noname    0.109826
   11   H11       -0.372937199     1.468273381     1.518907372       H   1  noname    0.069588
   12   H12        0.928076096     1.834365711     0.377996549       H   1  noname    0.095036
   13   H13        1.117561705    -1.719953214     0.366556080       H   1  noname    0.093687
   14   H14        1.460001127    -0.417166663     1.512053404       H   1  noname    0.069637
   15   H15        2.646732969     0.846972659    -0.382333500       H   1  noname    0.105230
   16   H16        3.355517103    -0.749113141    -0.078223831       H   1  noname    0.109549
   17   H17        2.264566334    -0.503497500    -1.472286455       H   1  noname    0.110255
   18   H18       -2.054299617    -0.113152242     0.346724635       H   1  noname    0.094273
   19   H19       -1.101638056    -1.041894411     1.513067922       H   1  noname    0.069132
   20   H20       -0.587125962    -2.731878308    -0.346352261       H   1  noname    0.105961
   21   H21       -2.326542811    -2.529775777    -0.076239052       H   1  noname    0.110133
   22   H22       -1.538861997    -1.736730218    -1.469663595       H   1  noname    0.110284


@<TRIPOS>BOND
    1      1      2    1
    2      2      3    1
    3      3      4    1
    4      4      5    1
    5      3      6    1
    6      6      7    1
    7      1      8    1
    8      1      9    1
    9      1     10    1
   10      2     11    1
   11      2     12    1
   12      4     13    1
   13      4     14    1
   14      5     15    1
   15      5     16    1
   16      5     17    1
   17      6     18    1
   18      6     19    1
   19      7     20    1
   20      7     21    1
   21      7     22    1
#
#	File Created by: Spartan'20 Export
#

@<TRIPOS>MOLECULE
M0178
33 32
SMALL
MULLIKEN_CHARGES


@<TRIPOS>ATOM
    1   C1         2.738620476    -1.745932044    -0.006371629     C.3   1  noname   -0.337427
    2   C2         1.471771329    -1.208160489    -0.672555286     C.3   1  noname   -0.183107
    3   N3         0.268193537    -1.256690156     0.162492442   N.pl3   1  noname   -0.052037
    4   C4        -0.364995126    -2.561756378     0.419502415     C.3   1  noname   -0.111731
    5   C5        -1.669037248    -2.744746398    -0.350887877     C.3   1  noname   -0.362171
    6   S6         0.000155960    -0.000078078     1.208409381       S   1  noname    0.744583
    7   O7         1.203132771     0.369248860     1.938737230     O.2   1  noname   -0.375767
    8   O8        -1.202769695    -0.369524531     1.938752038     O.2   1  noname   -0.375740
    9   N9        -0.267826096     1.256686577     0.162598269   N.pl3   1  noname   -0.052036
   10   C10       -1.471123508     1.208133986    -0.672826195     C.3   1  noname   -0.183105
   11   C11       -2.738298868     1.745266594    -0.006789673     C.3   1  noname   -0.337447
   12   C12        0.364930922     2.561900321     0.419984372     C.3   1  noname   -0.111713
   13   C13        1.668197377     2.745620705    -0.351515989     C.3   1  noname   -0.362105
   14   H14        2.975397880    -1.158850364     0.890162478       H   1  noname    0.150585
   15   H15        2.624436490    -2.799260948     0.289448918       H   1  noname    0.106917
   16   H16        3.587128808    -1.686407114    -0.704204042       H   1  noname    0.111895
   17   H17        1.248495704    -1.768541409    -1.596019796       H   1  noname    0.110595
   18   H18        1.614685993    -0.159941187    -0.973208805       H   1  noname    0.127533
   19   H19        0.365717034    -3.332633149     0.130353406       H   1  noname    0.106408
   20   H20       -0.543104205    -2.683275245     1.496590996       H   1  noname    0.128657
   21   H21       -2.078744472    -3.751466674    -0.179369734       H   1  noname    0.117356
   22   H22       -2.414923507    -2.011476890    -0.014424956       H   1  noname    0.140797
   23   H23       -1.512812582    -2.619482589    -1.432744542       H   1  noname    0.104893
   24   H24       -1.247772749     1.768933616    -1.596002698       H   1  noname    0.110576
   25   H25       -1.613792541     0.160006714    -0.973955349       H   1  noname    0.127565
   26   H26       -3.586479277     1.686206155    -0.705065193       H   1  noname    0.111893
   27   H27       -2.624415689     2.798346301     0.290021877       H   1  noname    0.106923
   28   H28       -2.975499841     1.157377619     0.889114631       H   1  noname    0.150574
   29   H29        0.543878129     2.682579223     1.497016670       H   1  noname    0.128717
   30   H30       -0.366347840     3.332706674     0.132065724       H   1  noname    0.106362
   31   H31        1.510835880     2.620810605    -1.433262150       H   1  noname    0.104890
   32   H32        2.414384733     2.012130429    -0.016186639       H   1  noname    0.140729
   33   H33        2.077980218     3.752269264    -0.179860294       H   1  noname    0.117352


@<TRIPOS>BOND
    1      1      2    1
    2      2      3    1
    3      3      4    1
    4      4      5    1
    5      3      6    1
    6      6      7    2
    7      6      8    2
    8      6      9    1
    9      9     10    1
   10     10     11    1
   11      9     12    1
   12     12     13    1
   13      1     14    1
   14      1     15    1
   15      1     16    1
   16      2     17    1
   17      2     18    1
   18      4     19    1
   19      4     20    1
   20      5     21    1
   21      5     22    1
   22      5     23    1
   23     10     24    1
   24     10     25    1
   25     11     26    1
   26     11     27    1
   27     11     28    1
   28     12     29    1
   29     12     30    1
   30     13     31    1
   31     13     32    1
   32     13     33    1
#
#	File Created by: Spartan'20 Export
#

@<TRIPOS>MOLECULE
M0179
52 53
SMALL
MULLIKEN_CHARGES


@<TRIPOS>ATOM
    1   C1         6.814620388     0.252171575     0.991274988     C.3   1  noname   -0.334097
    2   C2         6.170299334     0.176943140    -0.395222995     C.3   1  noname   -0.171594
    3   N3         4.910768798    -0.566605355    -0.444494656   N.pl3   1  noname    0.059053
    4   C4         4.968795990    -1.923349898    -0.980616246     C.3   1  noname   -0.144309
    5   C5         6.044712231    -2.800192661    -0.340436215     C.3   1  noname   -0.344663
    6   C6         3.708532227     0.117923603    -0.360592834     C.2   1  noname    0.194310
    7   C7         3.652783837     1.426584191     0.192232936     C.2   1  noname   -0.163527
    8   C8         2.456543075     2.116889358     0.288321609     C.2   1  noname   -0.200512
    9   C9         1.237465072     1.547501283    -0.119853648     C.2   1  noname    0.140681
   10   C10        1.287440179     0.260385015    -0.677977219     C.2   1  noname   -0.244320
   11   C11        2.484268016    -0.433216246    -0.814240802     C.2   1  noname   -0.183333
   12   C12       -0.002833854     2.367366388    -0.029683148     C.2   1  noname    0.124771
   13   O13        0.067200588     3.602597736    -0.070600819     O.2   1  noname   -0.296222
   14   C14       -1.325477015     1.699375985     0.114731190     C.2   1  noname    0.129509
   15   C15       -1.512741644     0.452633092     0.735162042     C.2   1  noname   -0.251751
   16   C16       -2.778409057    -0.087355826     0.924290768     C.2   1  noname   -0.187216
   17   C17       -3.943379687     0.594870685     0.489900775     C.2   1  noname    0.215078
   18   C18       -3.746833271     1.845730477    -0.155660719     C.2   1  noname   -0.172137
   19   C19       -2.479279808     2.381844622    -0.309017236     C.2   1  noname   -0.201004
   20   N20       -5.207556713     0.079138108     0.703482961   N.pl3   1  noname    0.061613
   21   C21       -5.388998705    -1.216481533     1.348277053     C.3   1  noname   -0.147912
   22   C22       -5.190622165    -2.429164406     0.431194005     C.3   1  noname   -0.338166
   23   C23       -6.395622724     0.755457775     0.194198320     C.3   1  noname   -0.147883
   24   C24       -6.683642849     0.524109197    -1.293736476     C.3   1  noname   -0.339303
   25   H25        7.733223761     0.856737386     0.950328929       H   1  noname    0.112024
   26   H26        7.077083928    -0.746967692     1.363917023       H   1  noname    0.119979
   27   H27        6.133551747     0.711028519     1.720951856       H   1  noname    0.129842
   28   H28        6.867664592    -0.297709380    -1.104120134       H   1  noname    0.114601
   29   H29        5.993354794     1.191122907    -0.785981827       H   1  noname    0.126606
   30   H30        3.999671822    -2.403583392    -0.798876327       H   1  noname    0.109057
   31   H31        5.112272868    -1.901914504    -2.081294823       H   1  noname    0.099800
   32   H32        6.009990511    -3.801116245    -0.794362086       H   1  noname    0.122989
   33   H33        7.059897494    -2.407759749    -0.492830776       H   1  noname    0.123979
   34   H34        5.874544744    -2.907814252     0.740418116       H   1  noname    0.123644
   35   H35        4.556854597     1.902182086     0.569998175       H   1  noname    0.106928
   36   H36        2.437737484     3.127380856     0.700583265       H   1  noname    0.123463
   37   H37        0.372642134    -0.192994778    -1.064245208       H   1  noname    0.139683
   38   H38        2.461239528    -1.398834498    -1.316191717       H   1  noname    0.091170
   39   H39       -0.649427512    -0.099587421     1.110763577       H   1  noname    0.140451
   40   H40       -2.857285738    -1.051499249     1.424038107       H   1  noname    0.100350
   41   H41       -4.596798961     2.411469959    -0.534751179       H   1  noname    0.103803
   42   H42       -2.353893663     3.360851190    -0.775426076       H   1  noname    0.122546
   43   H43       -4.708314379    -1.281898284     2.212351608       H   1  noname    0.117252
   44   H44       -6.407608656    -1.232412389     1.764752494       H   1  noname    0.103087
   45   H45       -5.939296284    -2.445868129    -0.372873977       H   1  noname    0.110745
   46   H46       -5.288350069    -3.362115450     1.006528026       H   1  noname    0.113584
   47   H47       -4.195687193    -2.415943281    -0.034708862       H   1  noname    0.135546
   48   H48       -7.249012554     0.403775136     0.793564180       H   1  noname    0.101932
   49   H49       -6.309688684     1.834877550     0.397801396       H   1  noname    0.118944
   50   H50       -6.893378331    -0.534721558    -1.499139861       H   1  noname    0.109667
   51   H51       -5.829424400     0.826424461    -1.914962892       H   1  noname    0.138061
   52   H52       -7.559595827     1.111733895    -1.607164644       H   1  noname    0.114696


@<TRIPOS>BOND
    1      1      2    1
    2      2      3    1
    3      3      4    1
    4      4      5    1
    5      3      6    1
    6      6      7    2
    7      7      8    1
    8      8      9    2
    9      9     10    1
   10     10     11    2
   11      9     12    1
   12     12     13    2
   13     12     14    1
   14     14     15    2
   15     15     16    1
   16     16     17    2
   17     17     18    1
   18     18     19    2
   19     17     20    1
   20     20     21    1
   21     21     22    1
   22     20     23    1
   23     23     24    1
   24     11      6    1
   25     19     14    1
   26      1     25    1
   27      1     26    1
   28      1     27    1
   29      2     28    1
   30      2     29    1
   31      4     30    1
   32      4     31    1
   33      5     32    1
   34      5     33    1
   35      5     34    1
   36      7     35    1
   37      8     36    1
   38     10     37    1
   39     11     38    1
   40     15     39    1
   41     16     40    1
   42     18     41    1
   43     19     42    1
   44     21     43    1
   45     21     44    1
   46     22     45    1
   47     22     46    1
   48     22     47    1
   49     23     48    1
   50     23     49    1
   51     24     50    1
   52     24     51    1
   53     24     52    1
#
#	File Created by: Spartan'20 Export
#

@<TRIPOS>MOLECULE
M0180
28 28
SMALL
MULLIKEN_CHARGES


@<TRIPOS>ATOM
    1   C1        -2.464208872     1.662439552    -0.290077478     C.3   1  noname   -0.342509
    2   C2        -1.838989593     1.070866234     0.978307166     C.3   1  noname   -0.155548
    3   N3        -1.004694093    -0.107424556     0.751047468   N.pl3   1  noname    0.071413
    4   C4        -1.637659524    -1.418328054     0.874816286     C.3   1  noname   -0.156097
    5   C5        -2.120467282    -2.033011978    -0.443541246     C.3   1  noname   -0.339346
    6   C6         0.298165869     0.017019876     0.327976648     C.2   1  noname    0.211464
    7   C7         1.109020283    -1.124825753     0.076436580     C.2   1  noname   -0.158899
    8   C8         2.433649510    -0.998406085    -0.304811049     C.2   1  noname   -0.183825
    9   C9         2.997618422     0.270127405    -0.463104247     C.2   1  noname    0.041066
   10   C10        2.224433386     1.413371491    -0.244747139     C.2   1  noname   -0.184830
   11   C11        0.898853300     1.292488317     0.135730095     C.2   1  noname   -0.165680
   12   N12        4.391503627     0.399457204    -0.870165702       N   1  noname    0.386294
   13   O13        5.038694562    -0.639973171    -1.060940559       O   1  noname   -0.284057
   14   O14        4.853786181     1.541485469    -1.000943947     O.2   1  noname   -0.283050
   15   H15       -3.011237390     2.586315448    -0.051293255       H   1  noname    0.120914
   16   H16       -1.692672855     1.901263149    -1.034656144       H   1  noname    0.139263
   17   H17       -3.171180248     0.958690873    -0.750268308       H   1  noname    0.114829
   18   H18       -1.240477440     1.834129723     1.499684563       H   1  noname    0.122732
   19   H19       -2.631455145     0.775587724     1.681578565       H   1  noname    0.109800
   20   H20       -2.491622645    -1.299475067     1.558072415       H   1  noname    0.108442
   21   H21       -0.942192516    -2.106306097     1.381366928       H   1  noname    0.122716
   22   H22       -1.297358405    -2.152630258    -1.161516287       H   1  noname    0.138238
   23   H23       -2.890562716    -1.408177868    -0.916124046       H   1  noname    0.113965
   24   H24       -2.556398096    -3.025839858    -0.257786509       H   1  noname    0.121299
   25   H25        0.697034486    -2.126898480     0.179802592       H   1  noname    0.115073
   26   H26        3.048483582    -1.878436648    -0.489788759       H   1  noname    0.145299
   27   H27        2.678585848     2.393503974    -0.385784375       H   1  noname    0.145174
   28   H28        0.321347767     2.202987433     0.280729743       H   1  noname    0.115105


@<TRIPOS>BOND
    1      1      2    1
    2      2      3    1
    3      3      4    1
    4      4      5    1
    5      3      6    1
    6      6      7    2
    7      7      8    1
    8      8      9    2
    9      9     10    1
   10     10     11    2
   11      9     12    1
   12     12     13    1
   13     12     14    2
   14     11      6    1
   15      1     15    1
   16      1     16    1
   17      1     17    1
   18      2     18    1
   19      2     19    1
   20      4     20    1
   21      4     21    1
   22      5     22    1
   23      5     23    1
   24      5     24    1
   25      7     25    1
   26      8     26    1
   27     10     27    1
   28     11     28    1
#
#	File Created by: Spartan'20 Export
#

@<TRIPOS>MOLECULE
M0181
25 25
SMALL
MULLIKEN_CHARGES


@<TRIPOS>ATOM
    1   C1        -0.802545481    -2.414637057     0.368958534     C.3   1  noname   -0.338902
    2   C2        -0.493402423    -1.266158644     1.336437659     C.3   1  noname   -0.150865
    3   N3         0.236653316    -0.148438056     0.745830536   N.pl3   1  noname    0.064713
    4   C4         1.688389686    -0.121780743     0.888363671     C.3   1  noname   -0.152874
    5   C5         2.461362362    -0.760045312    -0.270891440     C.3   1  noname   -0.340697
    6   C6        -0.410407696     0.781876659    -0.035802709     C.2   1  noname    0.192022
    7   C7         0.275761817     1.833676388    -0.692650396     C.2   1  noname   -0.181960
    8   C8        -0.438307623     2.761458332    -1.443325824     C.2   1  noname   -0.092259
    9   N9        -1.768944243     2.752137888    -1.623039073     N.2   1  noname   -0.151675
   10   C10       -2.414887901     1.747653926    -1.008948122     C.2   1  noname   -0.090375
   11   C11       -1.813339510     0.762685340    -0.233177699     C.2   1  noname   -0.183237
   12   H12       -1.398754568    -3.188777115     0.874897459       H   1  noname    0.116002
   13   H13        0.119278445    -2.883342248    -0.002255850       H   1  noname    0.110989
   14   H14       -1.373337416    -2.058206880    -0.499835025       H   1  noname    0.137696
   15   H15        0.108689251    -1.640125928     2.178018893       H   1  noname    0.104637
   16   H16       -1.429012236    -0.888001205     1.780057572       H   1  noname    0.118858
   17   H17        2.009723022     0.922418322     1.026689548       H   1  noname    0.119561
   18   H18        1.933701479    -0.638546544     1.828285165       H   1  noname    0.105551
   19   H19        2.185527898    -0.299944450    -1.229672412       H   1  noname    0.138037
   20   H20        3.544123382    -0.629436473    -0.125789058       H   1  noname    0.115842
   21   H21        2.256312669    -1.837247418    -0.341878667       H   1  noname    0.111893
   22   H22        1.358307096     1.934662440    -0.633572078       H   1  noname    0.098557
   23   H23        0.106796870     3.569700415    -1.942681981       H   1  noname    0.098573
   24   H24       -3.500954617     1.719813449    -1.149818045       H   1  noname    0.098599
   25   H25       -2.440733578    -0.011395087     0.205799343       H   1  noname    0.098764


@<TRIPOS>BOND
    1      1      2    1
    2      2      3    1
    3      3      4    1
    4      4      5    1
    5      3      6    1
    6      6      7    2
    7      7      8    1
    8      8      9    2
    9      9     10    1
   10     10     11    2
   11     11      6    1
   12      1     12    1
   13      1     13    1
   14      1     14    1
   15      2     15    1
   16      2     16    1
   17      4     17    1
   18      4     18    1
   19      5     19    1
   20      5     20    1
   21      5     21    1
   22      7     22    1
   23      8     23    1
   24     10     24    1
   25     11     25    1
#
#	File Created by: Spartan'20 Export
#

@<TRIPOS>MOLECULE
M0182
16 16
SMALL
MULLIKEN_CHARGES


@<TRIPOS>ATOM
    1   C1         0.577894690    -0.002522797    -2.177722612     C.3   1  noname   -0.379465
    2   C2        -0.669206328     0.000776260    -1.297235617     C.3   1  noname   -0.107543
    3   N3        -0.350924529     0.002487042     0.123939911    N.am   1  noname    0.047748
    4   C4        -0.151380020    -1.147033386     0.895895235     C.2   1  noname    0.199741
    5   O5        -0.247387989    -2.294915792     0.496635829     O.2   1  noname   -0.248301
    6   C6         0.188617522    -0.669104338     2.278849111     C.2   1  noname   -0.125133
    7   C7         0.186393188     0.670285593     2.280731161     C.2   1  noname   -0.125183
    8   C8        -0.155172512     1.151577603     0.898497778     C.2   1  noname    0.199022
    9   O9        -0.254869707     2.299850417     0.501953249     O.2   1  noname   -0.247669
   10   H10        0.291455279     0.001167006    -3.239111005       H   1  noname    0.121598
   11   H11        1.193129710     0.887761679    -1.986683983       H   1  noname    0.134054
   12   H12        1.184786920    -0.899536868    -1.990835978       H   1  noname    0.134436
   13   H13       -1.282722183    -0.891844358    -1.485450988       H   1  noname    0.129327
   14   H14       -1.281727626     0.893203595    -1.488357833       H   1  noname    0.129471
   15   H15        0.387741998    -1.363784143     3.091924400       H   1  noname    0.140238
   16   H16        0.383371585     1.361632486     3.096971343       H   1  noname    0.140265


@<TRIPOS>BOND
    1      1      2    1
    2      2      3    1
    3      3      4    am
    4      4      5    2
    5      4      6    1
    6      6      7    2
    7      7      8    1
    8      8      9    2
    9      8      3    am
   10      1     10    1
   11      1     11    1
   12      1     12    1
   13      2     13    1
   14      2     14    1
   15      6     15    1
   16      7     16    1
#
#	File Created by: Spartan'20 Export
#

@<TRIPOS>MOLECULE
M0183
13 12
SMALL
MULLIKEN_CHARGES


@<TRIPOS>ATOM
    1   C1         1.857308309    -0.062936979    -0.252168855     C.3   1  noname   -0.338424
    2   C2         0.476525376    -0.281934980     0.351945702     C.3   1  noname   -0.088742
    3   N3        -0.575007922     0.195040079    -0.541974545     N.3   1  noname   -0.269656
    4   C4        -1.908600038     0.074348287     0.032727093     C.3   1  noname   -0.276591
    5   H5         2.058088282     1.009760470    -0.403732585       H   1  noname    0.105264
    6   H6         1.938312517    -0.563279689    -1.227830496       H   1  noname    0.118622
    7   H7         2.642506474    -0.456141966     0.409159076       H   1  noname    0.114656
    8   H8         0.426038716     0.194562018     1.358740734       H   1  noname    0.067980
    9   H9         0.308483137    -1.360566845     0.517450910       H   1  noname    0.095005
   10   H10       -0.391993172     1.173087068    -0.778801213       H   1  noname    0.177743
   11   H11       -2.651029705     0.505561827    -0.653670306       H   1  noname    0.123629
   12   H12       -2.025199193     0.563694609     1.025250321       H   1  noname    0.091067
   13   H13       -2.155432782    -0.991193901     0.162904165       H   1  noname    0.117439


@<TRIPOS>BOND
    1      1      2    1
    2      2      3    1
    3      3      4    1
    4      1      5    1
    5      1      6    1
    6      1      7    1
    7      2      8    1
    8      2      9    1
    9      3     10    1
   10      4     11    1
   11      4     12    1
   12      4     13    1
#
#	File Created by: Spartan'20 Export
#

@<TRIPOS>MOLECULE
M0184
15 14
SMALL
MULLIKEN_CHARGES


@<TRIPOS>ATOM
    1   C1         2.159352566    -0.438953826    -0.108451833     C.3   1  noname   -0.349757
    2   C2         1.216607914     0.673104374     0.352768698     C.3   1  noname   -0.075841
    3   N3        -0.125754432     0.553747855    -0.200098368   N.pl3   1  noname   -0.238739
    4   C4        -1.124893133    -0.127751339     0.444825619     C.2   1  noname    0.270970
    5   O5        -0.979013223    -0.616308000     1.563511717     O.2   1  noname   -0.335338
    6   C6        -2.438530372    -0.227432186    -0.313730721     C.3   1  noname   -0.363400
    7   H7         3.153704585    -0.313390994     0.345004563       H   1  noname    0.114875
    8   H8         2.282194022    -0.435157746    -1.202083184       H   1  noname    0.100044
    9   H9         1.764700783    -1.419000405     0.193293582       H   1  noname    0.139258
   10   H10        1.106004819     0.641313820     1.445611525       H   1  noname    0.130475
   11   H11        1.614912808     1.663145815     0.081476743       H   1  noname    0.108153
   12   H12       -0.287629272     0.855733040    -1.154618340       H   1  noname    0.203011
   13   H13       -3.242840869     0.161320670     0.324999828       H   1  noname    0.138896
   14   H14       -2.655381749    -1.287597132    -0.504566208       H   1  noname    0.137042
   15   H15       -2.443434446     0.317226054    -1.267943621       H   1  noname    0.096813


@<TRIPOS>BOND
    1      1      2    1
    2      2      3    1
    3      3      4    1
    4      4      5    2
    5      4      6    1
    6      1      7    1
    7      1      8    1
    8      1      9    1
    9      2     10    1
   10      2     11    1
   11      3     12    1
   12      6     13    1
   13      6     14    1
   14      6     15    1
#
#	File Created by: Spartan'20 Export
#

@<TRIPOS>MOLECULE
M0185
16 15
SMALL
MULLIKEN_CHARGES


@<TRIPOS>ATOM
    1   C1        -1.807932683     0.763634720     0.441250471     C.3   1  noname   -0.345335
    2   C2        -0.950623107     0.388443524    -0.775625796     C.3   1  noname   -0.127008
    3   N3        -0.176707144    -0.851147635    -0.669480310     N.3   1  noname   -0.261604
    4   C4         0.859649184    -0.880319474     0.366957503     C.3   1  noname   -0.101200
    5   C5         2.058732025    -0.007333262     0.003294254     C.3   1  noname   -0.337023
    6   H6        -1.194810335     0.918000945     1.341007338       H   1  noname    0.116479
    7   H7        -2.364232051     1.695237391     0.256040661       H   1  noname    0.109461
    8   H8        -2.541848014    -0.026573344     0.665436791       H   1  noname    0.101709
    9   H9        -0.252314424     1.210562984    -1.001411107       H   1  noname    0.099281
   10   H10       -1.596116050     0.291333918    -1.663464504       H   1  noname    0.109231
   11   H11       -0.817555354    -1.633707115    -0.524601071       H   1  noname    0.177269
   12   H12        1.191485206    -1.927079776     0.452114938       H   1  noname    0.097933
   13   H13        0.490260399    -0.588632115     1.373969754       H   1  noname    0.076259
   14   H14        1.794023689     1.059944725    -0.024030900       H   1  noname    0.109417
   15   H15        2.861938345    -0.125327828     0.745323022       H   1  noname    0.109358
   16   H16        2.446050315    -0.287037656    -0.986781044       H   1  noname    0.113354


@<TRIPOS>BOND
    1      1      2    1
    2      2      3    1
    3      3      4    1
    4      4      5    1
    5      1      6    1
    6      1      7    1
    7      1      8    1
    8      2      9    1
    9      2     10    1
   10      3     11    1
   11      4     12    1
   12      4     13    1
   13      5     14    1
   14      5     15    1
   15      5     16    1
#
#	File Created by: Spartan'20 Export
#

@<TRIPOS>MOLECULE
M0186
9 8
SMALL
MULLIKEN_CHARGES


@<TRIPOS>ATOM
    1   C1        -0.904682803    -0.156938934    -0.057815493     C.3   1  noname   -0.356144
    2   C2         0.604230212    -0.292886555     0.095822070     C.3   1  noname   -0.025120
    3   O3         1.323427458     0.812640228    -0.460174556     O.3   1  noname   -0.409508
    4   H4        -1.420128982    -1.048705397     0.331069832       H   1  noname    0.108443
    5   H5        -1.176821065    -0.030536236    -1.115479710       H   1  noname    0.124032
    6   H6        -1.283233433     0.714060772     0.501122324       H   1  noname    0.105448
    7   H7         0.868712250    -0.438940790     1.161621046       H   1  noname    0.087577
    8   H8         0.967469751    -1.175425860    -0.451900973       H   1  noname    0.104791
    9   H9         1.021026613     1.616732774    -0.004264540       H   1  noname    0.287304


@<TRIPOS>BOND
    1      1      2    1
    2      2      3    1
    3      1      4    1
    4      1      5    1
    5      1      6    1
    6      2      7    1
    7      2      8    1
    8      3      9    1
#
#	File Created by: Spartan'20 Export
#

@<TRIPOS>MOLECULE
M0187
23 22
SMALL
MULLIKEN_CHARGES


@<TRIPOS>ATOM
    1   C1         4.070681041     0.398173947    -0.837340395     C.3   1  noname   -0.357430
    2   C2         3.451848511    -0.723093551    -0.019123216     C.3   1  noname   -0.028098
    3   O3         2.053030959    -0.903968574    -0.339004224     O.3   1  noname   -0.197704
    4   C4         1.177281562    -0.077900429     0.328802467     C.2   1  noname    0.286265
    5   O5         1.542035957     0.748307153     1.158050647     O.2   1  noname   -0.338010
    6   C6        -0.190631206    -0.349982814    -0.089899285     C.2   1  noname   -0.278988
    7   C7        -1.207735768     0.355329611     0.481359265     C.2   1  noname   -0.006576
    8   N8        -2.529763607     0.279646656     0.184693194   N.pl3   1  noname    0.042518
    9   C9        -3.515726739     0.870802798     1.071802098     C.3   1  noname   -0.284280
   10   C10       -3.001881105    -0.684483424    -0.790661098     C.3   1  noname   -0.306950
   11   H11        3.937923844     0.216527316    -1.913465912       H   1  noname    0.109841
   12   H12        3.609116124     1.360364161    -0.579340329       H   1  noname    0.141850
   13   H13        5.149240245     0.464545645    -0.629140324       H   1  noname    0.109235
   14   H14        3.914011842    -1.692253993    -0.254455653       H   1  noname    0.105326
   15   H15        3.551966079    -0.524480225     1.058097942       H   1  noname    0.107731
   16   H16       -0.350968843    -1.120760349    -0.841845781       H   1  noname    0.101914
   17   H17       -0.946963923     1.081537383     1.257163426       H   1  noname    0.127319
   18   H18       -3.953276536     0.125769108     1.761680358       H   1  noname    0.127258
   19   H19       -4.331919331     1.320589999     0.486706461       H   1  noname    0.130907
   20   H20       -3.041706409     1.658257771     1.670939191       H   1  noname    0.138321
   21   H21       -2.393195651    -0.623123490    -1.704654892       H   1  noname    0.144985
   22   H22       -2.949366879    -1.720874343    -0.409231957       H   1  noname    0.132264
   23   H23       -4.044000168    -0.458930359    -1.051131984       H   1  noname    0.131276


@<TRIPOS>BOND
    1      1      2    1
    2      2      3    1
    3      3      4    1
    4      4      5    2
    5      4      6    1
    6      6      7    2
    7      7      8    1
    8      8      9    1
    9      8     10    1
   10      1     11    1
   11      1     12    1
   12      1     13    1
   13      2     14    1
   14      2     15    1
   15      6     16    1
   16      7     17    1
   17      9     18    1
   18      9     19    1
   19      9     20    1
   20     10     21    1
   21     10     22    1
   22     10     23    1
#
#	File Created by: Spartan'20 Export
#

@<TRIPOS>MOLECULE
M0188
25 25
SMALL
MULLIKEN_CHARGES


@<TRIPOS>ATOM
    1   C1         4.794403819     0.496435525     0.438474570     C.3   1  noname   -0.361055
    2   C2         4.131288575    -0.796976143    -0.002519327     C.3   1  noname   -0.035531
    3   O3         2.736754128    -0.845092101     0.397268609     O.3   1  noname   -0.182365
    4   C4         1.855986705    -0.226539284    -0.445954183     C.2   1  noname    0.296078
    5   O5         2.186142979     0.339137098    -1.476110365     O.2   1  noname   -0.302771
    6   C6         0.482212818    -0.357477712     0.073977934     C.2   1  noname   -0.148895
    7   C7        -0.553969976     0.188363922    -0.595674284     C.2   1  noname   -0.151705
    8   C8        -1.967124229     0.152131571    -0.239783078     C.2   1  noname    0.266411
    9   C9        -2.457481244    -0.466508442     0.928600883     C.2   1  noname   -0.141442
   10   C10       -3.819386916    -0.477057709     1.211902225     C.2   1  noname   -0.108643
   11   C11       -4.729692326     0.129090390     0.337931983     C.2   1  noname   -0.075890
   12   C12       -4.262346506     0.748495302    -0.822636189     C.2   1  noname   -0.110231
   13   C13       -2.897427005     0.759533232    -1.105803456     C.2   1  noname   -0.152414
   14   H14        4.348537261     1.356586653    -0.077880858       H   1  noname    0.145122
   15   H15        5.866724363     0.465951247     0.193984581       H   1  noname    0.115913
   16   H16        4.693276128     0.638309230     1.523752243       H   1  noname    0.115509
   17   H17        4.582078444    -1.669837209     0.489235213       H   1  noname    0.113199
   18   H18        4.188501432    -0.919258230    -1.093731177       H   1  noname    0.113565
   19   H19        0.361528814    -0.911520071     1.006182271       H   1  noname    0.101291
   20   H20       -0.303258954     0.717470277    -1.522227597       H   1  noname    0.120842
   21   H21       -1.763667763    -0.944546001     1.622387198       H   1  noname    0.104774
   22   H22       -4.178170953    -0.961778074     2.121908681       H   1  noname    0.114656
   23   H23       -5.797409962     0.118203781     0.563915265       H   1  noname    0.116164
   24   H24       -4.963269659     1.224263643    -1.511095787       H   1  noname    0.115441
   25   H25       -2.534229972     1.242619102    -2.016105353       H   1  noname    0.117785


@<TRIPOS>BOND
    1      1      2    1
    2      2      3    1
    3      3      4    1
    4      4      5    2
    5      4      6    1
    6      6      7    2
    7      7      8    1
    8      8      9    2
    9      9     10    1
   10     10     11    2
   11     11     12    1
   12     12     13    2
   13     13      8    1
   14      1     14    1
   15      1     15    1
   16      1     16    1
   17      2     17    1
   18      2     18    1
   19      6     19    1
   20      7     20    1
   21      9     21    1
   22     10     22    1
   23     11     23    1
   24     12     24    1
   25     13     25    1
#
#	File Created by: Spartan'20 Export
#

@<TRIPOS>MOLECULE
M0189
14 13
SMALL
MULLIKEN_CHARGES


@<TRIPOS>ATOM
    1   C1        -2.016584688    -0.379208655     0.299132054     C.3   1  noname   -0.363341
    2   C2        -1.059316536    -0.309196790    -0.877137489     C.3   1  noname   -0.027596
    3   O3         0.316858248    -0.516099581    -0.454245500     O.3   1  noname   -0.183173
    4   C4         0.963165412     0.580400145     0.029935333     C.2   1  noname    0.274252
    5   O5         0.467374532     1.687521149     0.100888181     O.2   1  noname   -0.287582
    6   C6         2.365149125     0.219748702     0.452798043     C.3   1  noname   -0.344037
    7   H7        -3.053396978    -0.296663022    -0.059135416       H   1  noname    0.117764
    8   H8        -1.912395595    -1.334258460     0.833255523       H   1  noname    0.115724
    9   H9        -1.827909533     0.445412885     0.998449796       H   1  noname    0.144500
   10   H10       -1.130374702     0.660567206    -1.390509951       H   1  noname    0.114666
   11   H11       -1.243209201    -1.117895322    -1.596940116       H   1  noname    0.113750
   12   H12        2.925759157    -0.181141589    -0.403288106       H   1  noname    0.134444
   13   H13        2.336712943    -0.567147506     1.219567977       H   1  noname    0.133639
   14   H14        2.868167817     1.107960839     0.847229670       H   1  noname    0.138101


@<TRIPOS>BOND
    1      1      2    1
    2      2      3    1
    3      3      4    1
    4      4      5    2
    5      4      6    1
    6      1      7    1
    7      1      8    1
    8      1      9    1
    9      2     10    1
   10      2     11    1
   11      6     12    1
   12      6     13    1
   13      6     14    1
#
#	File Created by: Spartan'20 Export
#

@<TRIPOS>MOLECULE
M0190
13 12
SMALL
MULLIKEN_CHARGES


@<TRIPOS>ATOM
    1   C1        -1.042448830    -1.753908419    -0.193022819     C.3   1  noname   -0.360536
    2   C2        -1.030936118    -0.388327194    -0.854825597     C.3   1  noname   -0.044965
    3   O3         0.242732581     0.291510664    -0.647462720     O.3   1  noname   -0.159067
    4   C4         0.363666863     0.961593579     0.523356422     C.2   1  noname    0.158993
    5   O5        -0.491588405     1.041525268     1.385543521     O.2   1  noname   -0.260757
    6   C6         1.664464959     1.589372190     0.620308044     C.1   1  noname    0.010792
    7   C7         2.731690459     2.142652757     0.770016275     C.1   1  noname   -0.044960
    8   H8        -0.979899934    -1.660228085     0.898962838       H   1  noname    0.145936
    9   H9        -0.204304339    -2.369084104    -0.548788916       H   1  noname    0.122411
   10   H10       -1.979778406    -2.274523595    -0.438934023       H   1  noname    0.120856
   11   H11       -1.110524368    -0.464684758    -1.947028437       H   1  noname    0.119775
   12   H12       -1.838366847     0.251440826    -0.471392964       H   1  noname    0.121381
   13   H13        3.675292386     2.632660871     0.903268377       H   1  noname    0.176002


@<TRIPOS>BOND
    1      1      2    1
    2      2      3    1
    3      3      4    1
    4      4      5    2
    5      4      6    1
    6      6      7    3
    7      1      8    1
    8      1      9    1
    9      1     10    1
   10      2     11    1
   11      2     12    1
   12      7     13    1
#
#	File Created by: Spartan'20 Export
#

@<TRIPOS>MOLECULE
M0191
20 19
SMALL
MULLIKEN_CHARGES


@<TRIPOS>ATOM
    1   C1         3.599311215     0.401889449     0.991062929     C.3   1  noname   -0.366125
    2   C2         3.084703800    -0.640041362     0.015335679     C.3   1  noname   -0.038140
    3   O3         1.693561044    -0.976799025     0.290804242     O.3   1  noname   -0.135388
    4   C4         0.779956374    -0.148400048    -0.240809457     C.2   1  noname    0.236149
    5   O5         1.004666554     0.823450074    -0.929272558     O.2   1  noname   -0.249040
    6   C6        -0.637883706    -0.625878154     0.163469482     C.2   1  noname    0.221004
    7   O7        -0.866817531    -1.565053470     0.893909174     O.2   1  noname   -0.241708
    8   O8        -1.555040201     0.164842728    -0.416381605     O.3   1  noname   -0.129874
    9   C9        -2.939064803    -0.167119780    -0.108146951     C.3   1  noname   -0.076314
   10   C10       -3.817317422     0.801285691    -0.867769035     C.3   1  noname   -0.317841
   11   H11        3.478100412     0.060239455     2.028226195       H   1  noname    0.125545
   12   H12        4.669458590     0.578464839     0.808564433       H   1  noname    0.121649
   13   H13        3.067918511     1.353821954     0.861707425       H   1  noname    0.145171
   14   H14        3.611953327    -1.596436624     0.124196829       H   1  noname    0.122594
   15   H15        3.163177311    -0.290885738    -1.024305382       H   1  noname    0.118153
   16   H16       -3.118763318    -1.214111685    -0.396030992       H   1  noname    0.121497
   17   H17       -3.076810898    -0.094739873     0.981668149       H   1  noname    0.120582
   18   H18       -3.664618825     0.705070757    -1.951358950       H   1  noname    0.125348
   19   H19       -4.873763293     0.591664762    -0.647430159       H   1  noname    0.120375
   20   H20       -3.602727141     1.838736050    -0.577439449       H   1  noname    0.126005


@<TRIPOS>BOND
    1      1      2    1
    2      2      3    1
    3      3      4    1
    4      4      5    2
    5      4      6    1
    6      6      7    2
    7      6      8    1
    8      8      9    1
    9      9     10    1
   10      1     11    1
   11      1     12    1
   12      1     13    1
   13      2     14    1
   14      2     15    1
   15      9     16    1
   16      9     17    1
   17     10     18    1
   18     10     19    1
   19     10     20    1
#
#	File Created by: Spartan'20 Export
#

@<TRIPOS>MOLECULE
M0192
23 22
SMALL
MULLIKEN_CHARGES


@<TRIPOS>ATOM
    1   C1         0.437069544    -0.000933589     3.436267217     C.3   1  noname   -0.322128
    2   C2        -0.650757290    -0.000440755     2.382886787     C.3   1  noname   -0.068708
    3   O3         0.002483794     0.000312208     1.087525674     O.3   1  noname   -0.179746
    4   C4        -0.822977086     0.001685783     0.006181261     C.2   1  noname    0.243955
    5   O5        -2.035256761     0.003346431     0.095296738     O.2   1  noname   -0.267240
    6   C6        -0.018769172     0.000526973    -1.301690341     C.3   1  noname    0.133642
    7   C7         0.864580065    -1.262359923    -1.344095804     C.3   1  noname   -0.377589
    8   C8         0.864595152     1.263302053    -1.345940596     C.3   1  noname   -0.377645
    9   C9        -0.991338484    -0.000581863    -2.485425644     C.3   1  noname   -0.340093
   10   H10        1.073250111    -0.892334385     3.344444315       H   1  noname    0.119947
   11   H11       -0.015646575    -0.001909057     4.438242271       H   1  noname    0.119323
   12   H12        1.072653902     0.891036205     3.345895017       H   1  noname    0.119946
   13   H13       -1.298782536     0.886660174     2.454160329       H   1  noname    0.113791
   14   H14       -1.298391657    -0.887950463     2.453023930       H   1  noname    0.113684
   15   H15        0.250767836    -2.174533515    -1.299332918       H   1  noname    0.121582
   16   H16        1.578475110    -1.284224211    -0.510194842       H   1  noname    0.128975
   17   H17        1.430733481    -1.284194875    -2.287666640       H   1  noname    0.114822
   18   H18        1.578406081     1.286157949    -0.511988956       H   1  noname    0.128946
   19   H19        0.250836736     2.175561948    -1.302504474       H   1  noname    0.121643
   20   H20        1.430830833     1.283660127    -2.289492521       H   1  noname    0.114843
   21   H21       -1.639332829    -0.887168908    -2.468017260       H   1  noname    0.119840
   22   H22       -1.639710561     0.885733222    -2.469587473       H   1  noname    0.119925
   23   H23       -0.423719694    -0.001351530    -3.427986072       H   1  noname    0.111258


@<TRIPOS>BOND
    1      1      2    1
    2      2      3    1
    3      3      4    1
    4      4      5    2
    5      4      6    1
    6      6      7    1
    7      6      8    1
    8      6      9    1
    9      1     10    1
   10      1     11    1
   11      1     12    1
   12      2     13    1
   13      2     14    1
   14      7     15    1
   15      7     16    1
   16      7     17    1
   17      8     18    1
   18      8     19    1
   19      8     20    1
   20      9     21    1
   21      9     22    1
   22      9     23    1
#
#	File Created by: Spartan'20 Export
#

@<TRIPOS>MOLECULE
M0193
20 19
SMALL
MULLIKEN_CHARGES


@<TRIPOS>ATOM
    1   C1         3.156183011    -0.307472815     1.003009670     C.3   1  noname   -0.317689
    2   C2         2.245783423     0.077529951    -0.142892912     C.3   1  noname   -0.067882
    3   O3         0.887465971     0.105004992     0.369767806     O.3   1  noname   -0.176900
    4   C4        -0.081570135     0.361396646    -0.550345362     C.2   1  noname    0.249212
    5   O5         0.147856210     0.582465075    -1.723501277     O.2   1  noname   -0.279785
    6   C6        -1.461807392     0.288239524     0.087654878     C.3   1  noname    0.019309
    7   C7        -1.857970323    -1.191223895     0.249017860     C.3   1  noname   -0.379856
    8   C8        -2.486594196     1.061986819    -0.739648669     C.3   1  noname   -0.339906
    9   H9         4.198717378    -0.339699911     0.655368690       H   1  noname    0.118820
   10   H10        3.089244403     0.420910946     1.823203520       H   1  noname    0.119851
   11   H11        2.893445950    -1.298961254     1.397178825       H   1  noname    0.118912
   12   H12        2.295234143    -0.641911211    -0.974599338       H   1  noname    0.115110
   13   H13        2.487764849     1.070636966    -0.551387578       H   1  noname    0.114016
   14   H14       -1.374086644     0.730059454     1.093851584       H   1  noname    0.080176
   15   H15       -1.124829288    -1.738217436     0.856895794       H   1  noname    0.128549
   16   H16       -2.839658799    -1.268909698     0.738102383       H   1  noname    0.120472
   17   H17       -1.930527947    -1.679980788    -0.734370517       H   1  noname    0.122730
   18   H18       -2.215357828     2.122905080    -0.828142059       H   1  noname    0.119763
   19   H19       -2.549529664     0.650267856    -1.756384155       H   1  noname    0.123150
   20   H20       -3.479763122     0.994973696    -0.272779143       H   1  noname    0.114014


@<TRIPOS>BOND
    1      1      2    1
    2      2      3    1
    3      3      4    1
    4      4      5    2
    5      4      6    1
    6      6      7    1
    7      6      8    1
    8      1      9    1
    9      1     10    1
   10      1     11    1
   11      2     12    1
   12      2     13    1
   13      6     14    1
   14      7     15    1
   15      7     16    1
   16      7     17    1
   17      8     18    1
   18      8     19    1
   19      8     20    1
#
#	File Created by: Spartan'20 Export
#

@<TRIPOS>MOLECULE
M0194
14 13
SMALL
MULLIKEN_CHARGES


@<TRIPOS>ATOM
    1   C1         0.704024586     0.000292837    -2.237469137     C.3   1  noname   -0.318640
    2   C2        -0.428664823    -0.001258946    -1.235843320     C.3   1  noname   -0.075518
    3   O3         0.172942254     0.002171875     0.093968639     O.3   1  noname   -0.151235
    4   C4        -0.688548330     0.003671270     1.115671153     C.2   1  noname    0.187683
    5   O5        -1.893349375     0.006131776     1.042439027     O.2   1  noname   -0.225123
    6   C6         0.098423148    -0.000255257     2.467796429     C.3   1  noname    0.198757
    7   Cl7       -1.033954313    -0.001474321     3.827286417      Cl   1  noname   -0.019234
    8   Cl8        1.122374733    -1.472893550     2.530016171      Cl   1  noname   -0.049682
    9   Cl9        1.127180329     1.468569114     2.535786164      Cl   1  noname   -0.049569
   10   H10        1.330674120     0.894563446    -2.119889113       H   1  noname    0.127762
   11   H11        1.336346040    -0.889485489    -2.116168181       H   1  noname    0.127782
   12   H12        0.292767760    -0.003145876    -3.256893843       H   1  noname    0.124103
   13   H13       -1.072849021     0.886068152    -1.324844819       H   1  noname    0.126021
   14   H14       -1.067367108    -0.892955030    -1.321855585       H   1  noname    0.125767


@<TRIPOS>BOND
    1      1      2    1
    2      2      3    1
    3      3      4    1
    4      4      5    2
    5      4      6    1
    6      6      7    1
    7      6      8    1
    8      6      9    1
    9      1     10    1
   10      1     11    1
   11      1     12    1
   12      2     13    1
   13      2     14    1
#
#	File Created by: Spartan'20 Export
#

@<TRIPOS>MOLECULE
M0195
18 18
SMALL
MULLIKEN_CHARGES


@<TRIPOS>ATOM
    1   C1         2.893351081    -0.068041622     0.361437451     C.3   1  noname   -0.362570
    2   C2         2.042335460    -0.524345178    -0.809722728     C.3   1  noname   -0.028188
    3   O3         0.708903851    -0.905657554    -0.374101320     O.3   1  noname   -0.180845
    4   C4        -0.202190548     0.103344461    -0.298428092     C.2   1  noname    0.236961
    5   O5         0.036715882     1.264277012    -0.583938205     O.2   1  noname   -0.309990
    6   C6        -1.514238580    -0.407970075     0.170747097     C.3   1  noname   -0.025209
    7   C7        -2.758537285     0.267067551    -0.384977905     C.3   1  noname   -0.215321
    8   C8        -2.356104888     0.525007573     1.028540435     C.3   1  noname   -0.216936
    9   H9         3.917450876     0.140757451     0.018182715       H   1  noname    0.116884
   10   H10        2.485190222     0.851267983     0.801866864       H   1  noname    0.141867
   11   H11        2.941628495    -0.844872799     1.137423644       H   1  noname    0.116833
   12   H12        1.955645968     0.264892200    -1.569818086       H   1  noname    0.115180
   13   H13        2.445699409    -1.435467969    -1.271984153       H   1  noname    0.113714
   14   H14       -1.559407730    -1.475953412     0.378565809       H   1  noname    0.110583
   15   H15       -2.581453456     1.061651015    -1.109463099       H   1  noname    0.134898
   16   H16       -3.616941296    -0.374307348    -0.582486892       H   1  noname    0.118742
   17   H17       -2.930276911     0.066147872     1.833005640       H   1  noname    0.118568
   18   H18       -1.907770551     1.492202836     1.255150826       H   1  noname    0.135425


@<TRIPOS>BOND
    1      1      2    1
    2      2      3    1
    3      3      4    1
    4      4      5    2
    5      4      6    1
    6      6      7    1
    7      7      8    1
    8      8      6    1
    9      1      9    1
   10      1     10    1
   11      1     11    1
   12      2     12    1
   13      2     13    1
   14      6     14    1
   15      7     15    1
   16      7     16    1
   17      8     17    1
   18      8     18    1
#
#	File Created by: Spartan'20 Export
#

@<TRIPOS>MOLECULE
M0196
14 13
SMALL
MULLIKEN_CHARGES


@<TRIPOS>ATOM
    1   C1        -0.197607467     0.000133528    -2.342342489     C.3   1  noname   -0.315114
    2   C2         0.656339878    -0.000102922    -1.094023996     C.3   1  noname   -0.076480
    3   O3        -0.241861306    -0.000055318     0.052535350     O.3   1  noname   -0.181515
    4   C4         0.363636236     0.000006721     1.266995615     C.2   1  noname    0.243040
    5   O5         1.558206806     0.000059516     1.446350296     O.2   1  noname   -0.246347
    6   C6        -0.726322465    -0.000080725     2.333920842     C.3   1  noname   -0.139040
    7   Cl7       -0.073801828     0.000633385     3.987072136      Cl   1  noname   -0.102328
    8   H8         0.448917533     0.000034849    -3.231456095       H   1  noname    0.122715
    9   H9        -0.839185618    -0.891200894    -2.384197536       H   1  noname    0.122073
   10   H10       -0.838831394     0.891726857    -2.384119718       H   1  noname    0.122075
   11   H11        1.303457706    -0.888086085    -1.029884294       H   1  noname    0.122858
   12   H12        1.303764291     0.887640402    -1.029755528       H   1  noname    0.122873
   13   H13       -1.358688746     0.888212569     2.204205310       H   1  noname    0.150538
   14   H14       -1.358023627    -0.888921882     2.204700105       H   1  noname    0.150538


@<TRIPOS>BOND
    1      1      2    1
    2      2      3    1
    3      3      4    1
    4      4      5    2
    5      4      6    1
    6      6      7    1
    7      1      8    1
    8      1      9    1
    9      1     10    1
   10      2     11    1
   11      2     12    1
   12      6     13    1
   13      6     14    1
#
#	File Created by: Spartan'20 Export
#

@<TRIPOS>MOLECULE
M0197
14 13
SMALL
MULLIKEN_CHARGES


@<TRIPOS>ATOM
    1   C1        -0.707235702     0.000186241    -2.222749551     C.3   1  noname   -0.312941
    2   C2         0.402954488    -0.000241825    -1.194996148     C.3   1  noname   -0.075519
    3   O3        -0.224611362    -0.000247440     0.121376337     O.3   1  noname   -0.151834
    4   C4         0.623219160     0.000030053     1.161962527     C.2   1  noname    0.250225
    5   O5         1.836861290     0.000325822     1.091384789     O.2   1  noname   -0.285300
    6   C6        -0.085556714     0.000013757     2.508343958     C.3   1  noname   -0.000370
    7   F7        -1.471119197    -0.000883039     2.425580818       F   1  noname   -0.185286
    8   H8        -1.339991838     0.891841460    -2.117321243       H   1  noname    0.124243
    9   H9        -0.274060138     0.000097375    -3.233204256       H   1  noname    0.120006
   10   H10       -1.340570324    -0.891068411    -2.117425029       H   1  noname    0.124252
   11   H11        1.047499761     0.887931274    -1.273321247       H   1  noname    0.120045
   12   H12        1.046979279    -0.888784598    -1.273523257       H   1  noname    0.120018
   13   H13        0.243383620    -0.894319413     3.062228599       H   1  noname    0.125199
   14   H14        0.242247678     0.895118744     3.061663701       H   1  noname    0.125185


@<TRIPOS>BOND
    1      1      2    1
    2      2      3    1
    3      3      4    1
    4      4      5    2
    5      4      6    1
    6      6      7    1
    7      1      8    1
    8      1      9    1
    9      1     10    1
   10      2     11    1
   11      2     12    1
   12      6     13    1
   13      6     14    1
#
#	File Created by: Spartan'20 Export
#

@<TRIPOS>MOLECULE
M0198
24 24
SMALL
MULLIKEN_CHARGES


@<TRIPOS>ATOM
    1   C1         3.955618916     0.768440274     0.420578541     C.3   1  noname   -0.364041
    2   C2         3.342157243    -0.516577101     0.944817783     C.3   1  noname   -0.032354
    3   O3         2.257396466    -0.977527107     0.090850291     O.3   1  noname   -0.179078
    4   C4         1.036974750    -0.426635247     0.334983999     C.2   1  noname    0.229305
    5   O5         0.813844653     0.390900586     1.202244372     O.2   1  noname   -0.270261
    6   C6         0.012660951    -1.008650605    -0.634471648     C.3   1  noname   -0.240124
    7   C7        -1.355902956    -0.394600218    -0.511501014     C.2   1  noname    0.252851
    8   C8        -2.302767910    -0.919270755     0.376776839     C.2   1  noname   -0.159102
    9   C9        -3.564382628    -0.335773233     0.502327450     C.2   1  noname   -0.114480
   10   C10       -3.896771719     0.785014052    -0.261627105     C.2   1  noname   -0.078892
   11   C11       -2.960343208     1.315882134    -1.151077051     C.2   1  noname   -0.113277
   12   C12       -1.700665399     0.728453314    -1.273470850     C.2   1  noname   -0.165721
   13   H13        3.228930566     1.590313200     0.459178347       H   1  noname    0.145038
   14   H14        4.819618052     1.043948937     1.043288661       H   1  noname    0.118555
   15   H15        4.304597083     0.645220748    -0.614293034       H   1  noname    0.116281
   16   H16        4.062823690    -1.345120531     0.929544810       H   1  noname    0.114725
   17   H17        2.956090015    -0.384983492     1.965689562       H   1  noname    0.115189
   18   H18       -0.018884408    -2.095399336    -0.455148162       H   1  noname    0.132364
   19   H19        0.416825462    -0.886641777    -1.651599708       H   1  noname    0.135352
   20   H20       -2.048303271    -1.796909873     0.976681749       H   1  noname    0.101697
   21   H21       -4.291020186    -0.760003055     1.197921921       H   1  noname    0.108336
   22   H22       -4.884109329     1.240720271    -0.167075354       H   1  noname    0.108240
   23   H23       -3.212269388     2.191109069    -1.753084974       H   1  noname    0.108182
   24   H24       -0.972117446     1.148089743    -1.971535424       H   1  noname    0.101530


@<TRIPOS>BOND
    1      1      2    1
    2      2      3    1
    3      3      4    1
    4      4      5    2
    5      4      6    1
    6      6      7    1
    7      7      8    2
    8      8      9    1
    9      9     10    2
   10     10     11    1
   11     11     12    2
   12     12      7    1
   13      1     13    1
   14      1     14    1
   15      1     15    1
   16      2     16    1
   17      2     17    1
   18      6     18    1
   19      6     19    1
   20      8     20    1
   21      9     21    1
   22     10     22    1
   23     11     23    1
   24     12     24    1
#
#	File Created by: Spartan'20 Export
#

@<TRIPOS>MOLECULE
M0199
19 18
SMALL
MULLIKEN_CHARGES


@<TRIPOS>ATOM
    1   C1        -2.776539326    -0.508865560     0.605510819     C.3   1  noname   -0.355535
    2   C2        -2.001190171    -0.736280084    -0.680249377     C.3   1  noname   -0.028398
    3   O3        -0.572198950    -0.762534910    -0.440882058     O.3   1  noname   -0.233871
    4   C4         0.025365482     0.470669614    -0.375572956     C.2   1  noname    0.326586
    5   O5        -0.571454820     1.527377661    -0.545098690     O.2   1  noname   -0.362964
    6   N6         1.365973291     0.361411069    -0.114452655    N.am   1  noname   -0.032591
    7   C7         2.044893170    -0.893299270     0.156565034     C.3   1  noname   -0.296171
    8   C8         2.140036601     1.573036078     0.082216519     C.3   1  noname   -0.289479
    9   H9        -3.857037165    -0.560488024     0.404214072       H   1  noname    0.113362
   10   H10       -2.547891015     0.483578349     1.014780772       H   1  noname    0.143882
   11   H11       -2.528486899    -1.274416061     1.354373021       H   1  noname    0.109891
   12   H12       -2.227169034     0.043926991    -1.420815865       H   1  noname    0.113645
   13   H13       -2.217611686    -1.722849359    -1.112937139       H   1  noname    0.108209
   14   H14        3.008806331    -0.908258910    -0.376543690       H   1  noname    0.120700
   15   H15        2.250751471    -1.015867607     1.235273482       H   1  noname    0.118201
   16   H16        1.440270514    -1.737925280    -0.183169246       H   1  noname    0.156612
   17   H17        1.518819395     2.436447763    -0.175752853       H   1  noname    0.166374
   18   H18        2.469237382     1.666132485     1.132145767       H   1  noname    0.115204
   19   H19        3.035425427     1.558205055    -0.559604956       H   1  noname    0.119296


@<TRIPOS>BOND
    1      1      2    1
    2      2      3    1
    3      3      4    1
    4      4      5    2
    5      4      6    am
    6      6      7    1
    7      6      8    1
    8      1      9    1
    9      1     10    1
   10      1     11    1
   11      2     12    1
   12      2     13    1
   13      7     14    1
   14      7     15    1
   15      7     16    1
   16      8     17    1
   17      8     18    1
   18      8     19    1
#
#	File Created by: Spartan'20 Export
#

@<TRIPOS>MOLECULE
M0200
15 14
SMALL
MULLIKEN_CHARGES


@<TRIPOS>ATOM
    1   C1        -0.418696236     0.000122701    -2.778803296     C.3   1  noname   -0.313876
    2   C2         0.446914412    -0.000189853    -1.538483774     C.3   1  noname   -0.065913
    3   O3        -0.441657281    -0.000278518    -0.390111337     O.3   1  noname   -0.176040
    4   C4         0.184195979    -0.000107794     0.803573566     C.2   1  noname    0.369226
    5   O5         1.384839340     0.000109231     0.990866090     O.2   1  noname   -0.313579
    6   O6        -0.770593133    -0.000211331     1.758337970     O.3   1  noname   -0.184285
    7   C7        -0.253595494     0.000077618     3.103569762     C.3   1  noname   -0.208517
    8   H8        -1.060210656     0.891639169    -2.813096512       H   1  noname    0.122590
    9   H9         0.219813947     0.000123958    -3.673887180       H   1  noname    0.118629
   10   H10       -1.060518502    -0.891162412    -2.813331984       H   1  noname    0.122593
   11   H11        1.094909853    -0.888765013    -1.484841165       H   1  noname    0.116419
   12   H12        1.095145845     0.888191309    -1.484571589       H   1  noname    0.116438
   13   H13       -1.137022517    -0.000289282     3.750851338       H   1  noname    0.135542
   14   H14        0.357826014     0.894916356     3.284910547       H   1  noname    0.133783
   15   H15        0.358648428    -0.894176139     3.285017565       H   1  noname    0.133797


@<TRIPOS>BOND
    1      1      2    1
    2      2      3    1
    3      3      4    1
    4      4      5    2
    5      4      6    1
    6      6      7    1
    7      1      8    1
    8      1      9    1
    9      1     10    1
   10      2     11    1
   11      2     12    1
   12      7     13    1
   13      7     14    1
   14      7     15    1
#
#	File Created by: Spartan'20 Export
#

@<TRIPOS>MOLECULE
M0201
18 17
SMALL
MULLIKEN_CHARGES


@<TRIPOS>ATOM
    1   C1         3.098592470     0.385465780    -0.246830295     C.3   1  noname   -0.365136
    2   C2         2.381791780    -0.736247261     0.482245356     C.3   1  noname   -0.026666
    3   O3         1.053003095    -0.330486686     0.909123513     O.3   1  noname   -0.184099
    4   C4         0.101879452    -0.402922984    -0.044448294     C.2   1  noname    0.362924
    5   O5         0.244564992    -0.805799556    -1.182774062     O.2   1  noname   -0.322243
    6   O6        -1.044965890     0.050415062     0.500194164     O.3   1  noname   -0.175621
    7   C7        -2.184910376     0.042217288    -0.399978740     C.3   1  noname   -0.064224
    8   C8        -3.368629586     0.589267278     0.366668645     C.3   1  noname   -0.313553
    9   H9         2.578148114     0.632128899    -1.181461345       H   1  noname    0.144133
   10   H10        4.122795469     0.071120410    -0.496328589       H   1  noname    0.117414
   11   H11        3.157049862     1.285545487     0.381054330       H   1  noname    0.119163
   12   H12        2.294696055    -1.633144147    -0.147970590       H   1  noname    0.114744
   13   H13        2.889872894    -0.998947976     1.419520944       H   1  noname    0.116609
   14   H14       -1.942988035     0.655150067    -1.281834054       H   1  noname    0.114749
   15   H15       -2.356076790    -0.988375753    -0.746708318       H   1  noname    0.116254
   16   H16       -4.253650793     0.607085771    -0.285246773       H   1  noname    0.118092
   17   H17       -3.174501309     1.613543676     0.713750358       H   1  noname    0.122027
   18   H18       -3.596671405    -0.036015353     1.241023749       H   1  noname    0.122484


@<TRIPOS>BOND
    1      1      2    1
    2      2      3    1
    3      3      4    1
    4      4      5    2
    5      4      6    1
    6      6      7    1
    7      7      8    1
    8      1      9    1
    9      1     10    1
   10      1     11    1
   11      2     12    1
   12      2     13    1
   13      7     14    1
   14      7     15    1
   15      8     16    1
   16      8     17    1
   17      8     18    1
#
#	File Created by: Spartan'20 Export
#

@<TRIPOS>MOLECULE
M0202
21 20
SMALL
MULLIKEN_CHARGES


@<TRIPOS>ATOM
    1   C1        -0.405069156     0.000268375     2.886958785     C.3   1  noname   -0.316176
    2   C2         0.359904476    -0.000646667     1.575895601     C.3   1  noname   -0.052529
    3   O3        -0.597710602     0.000178761     0.522496111     O.3   1  noname   -0.220981
    4   C4        -0.100754295     0.000128020    -0.838299170     C.3   1  noname    0.186614
    5   C5        -1.380197963    -0.000198193    -1.677187496     C.3   1  noname   -0.313651
    6   C6         0.721771874    -1.262812662    -1.128191377     C.3   1  noname   -0.367957
    7   C7         0.721210684     1.263407034    -1.128318689     C.3   1  noname   -0.367782
    8   H8        -1.044650785     0.891165980     2.959900350       H   1  noname    0.113878
    9   H9        -1.046769944    -0.889114230     2.959829601       H   1  noname    0.113885
   10   H10        0.291484161    -0.000611971     3.737934735       H   1  noname    0.106331
   11   H11        1.012179352    -0.893089216     1.518211798       H   1  noname    0.079789
   12   H12        1.014087385     0.890382164     1.518005223       H   1  noname    0.079706
   13   H13       -1.145982424    -0.000278954    -2.751163938       H   1  noname    0.101434
   14   H14       -1.984270566     0.889627912    -1.449658068       H   1  noname    0.114315
   15   H15       -1.983912368    -0.890230347    -1.449487703       H   1  noname    0.114300
   16   H16        1.671225709    -1.268754420    -0.574183190       H   1  noname    0.118917
   17   H17        0.150142012    -2.161317039    -0.854996520       H   1  noname    0.120833
   18   H18        0.964043162    -1.318099401    -2.199072629       H   1  noname    0.112561
   19   H19        0.149132683     2.161636193    -0.855227738       H   1  noname    0.120808
   20   H20        0.963518804     1.318610463    -2.199199808       H   1  noname    0.112535
   21   H21        1.670617802     1.269748196    -0.574245878       H   1  noname    0.118842


@<TRIPOS>BOND
    1      1      2    1
    2      2      3    1
    3      3      4    1
    4      4      5    1
    5      4      6    1
    6      4      7    1
    7      1      8    1
    8      1      9    1
    9      1     10    1
   10      2     11    1
   11      2     12    1
   12      5     13    1
   13      5     14    1
   14      5     15    1
   15      6     16    1
   16      6     17    1
   17      6     18    1
   18      7     19    1
   19      7     20    1
   20      7     21    1
#
#	File Created by: Spartan'20 Export
#

@<TRIPOS>MOLECULE
M0203
13 12
SMALL
MULLIKEN_CHARGES


@<TRIPOS>ATOM
    1   C1        -1.746408341    -0.220378228    -0.484470671     C.3   1  noname   -0.327431
    2   C2        -0.981487929     0.111979729     0.787065265     C.3   1  noname   -0.056715
    3   O3         0.350817653    -0.427191568     0.775669530     O.3   1  noname   -0.176043
    4   C4         1.263920061     0.283706217     0.056291971     C.2   1  noname    0.043960
    5   C5         2.459635074    -0.208288638    -0.284594919     C.2   1  noname   -0.304046
    6   H6        -1.797171858    -1.308120666    -0.631871426       H   1  noname    0.121897
    7   H7        -1.261012554     0.224179108    -1.365355407       H   1  noname    0.121806
    8   H8        -2.772856213     0.171405157    -0.423834700       H   1  noname    0.116086
    9   H9        -1.463283709    -0.337502832     1.667091977       H   1  noname    0.117646
   10   H10       -0.934893831     1.205341267     0.948079035       H   1  noname    0.094052
   11   H11        0.963330127     1.309267288    -0.197941675       H   1  noname    0.076798
   12   H12        3.169583602     0.423871447    -0.813205154       H   1  noname    0.119335
   13   H13        2.749827917    -1.228268280    -0.032923826       H   1  noname    0.112600


@<TRIPOS>BOND
    1      1      2    1
    2      2      3    1
    3      3      4    1
    4      4      5    2
    5      1      6    1
    6      1      7    1
    7      1      8    1
    8      2      9    1
    9      2     10    1
   10      4     11    1
   11      5     12    1
   12      5     13    1
#
#	File Created by: Spartan'20 Export
#

@<TRIPOS>MOLECULE
M0204
11 10
SMALL
MULLIKEN_CHARGES


@<TRIPOS>ATOM
    1   C1        -1.307224022     0.470668377    -0.086627144     C.3   1  noname   -0.361350
    2   C2        -0.371591603    -0.705730638     0.119886495     C.3   1  noname   -0.032045
    3   O3         0.844032619    -0.553998821    -0.674061903     O.3   1  noname   -0.164436
    4   C4         1.847002791     0.139137435    -0.096340683     C.2   1  noname    0.178272
    5   O5         1.840217523     0.637381132     1.006271897     O.2   1  noname   -0.266698
    6   H6        -0.851511115     1.399649430     0.281007449       H   1  noname    0.142987
    7   H7        -2.241430200     0.303802801     0.469657869       H   1  noname    0.120128
    8   H8        -1.556754450     0.592092617    -1.149887617       H   1  noname    0.120524
    9   H9        -0.090083487    -0.814748361     1.176717716       H   1  noname    0.120665
   10   H10       -0.811413623    -1.644705324    -0.241027737       H   1  noname    0.117943
   11   H11        2.698755567     0.176451350    -0.805596343       H   1  noname    0.092428


@<TRIPOS>BOND
    1      1      2    1
    2      2      3    1
    3      3      4    1
    4      4      5    2
    5      1      6    1
    6      1      7    1
    7      1      8    1
    8      2      9    1
    9      2     10    1
   10      4     11    1
#
#	File Created by: Spartan'20 Export
#

@<TRIPOS>MOLECULE
M0205
15 14
SMALL
MULLIKEN_CHARGES


@<TRIPOS>ATOM
    1   C1        -2.311732868    -0.379311637    -0.289076245     C.3   1  noname   -0.313613
    2   C2        -0.870315529     0.000748348    -0.569143721     C.3   1  noname   -0.048944
    3   O3        -0.270660436     0.408952894     0.656474521     O.3   1  noname   -0.234335
    4   C4         1.090167387     0.815359997     0.527086330     C.3   1  noname   -0.028618
    5   C5         2.067752400    -0.350190436     0.405183134     C.3   1  noname   -0.344106
    6   H6        -2.358614246    -1.214013387     0.424441723       H   1  noname    0.115419
    7   H7        -2.813947358    -0.687029222    -1.217571960       H   1  noname    0.107773
    8   H8        -2.859853743     0.471222835     0.139801098       H   1  noname    0.115594
    9   H9        -0.820152742     0.830477022    -1.305305988       H   1  noname    0.080334
   10   H10       -0.328837752    -0.859486277    -1.009783807       H   1  noname    0.079583
   11   H11        1.199332860     1.503547339    -0.335507485       H   1  noname    0.073109
   12   H12        1.306557462     1.393094999     1.439189116       H   1  noname    0.108742
   13   H13        3.102771721     0.023661421     0.397584046       H   1  noname    0.111134
   14   H14        1.952226181    -1.034186966     1.257685553       H   1  noname    0.116171
   15   H15        1.915306663    -0.922846929    -0.521056314       H   1  noname    0.115279


@<TRIPOS>BOND
    1      1      2    1
    2      2      3    1
    3      3      4    1
    4      4      5    1
    5      1      6    1
    6      1      7    1
    7      1      8    1
    8      2      9    1
    9      2     10    1
   10      4     11    1
   11      4     12    1
   12      5     13    1
   13      5     14    1
   14      5     15    1
#
#	File Created by: Spartan'20 Export
#

@<TRIPOS>MOLECULE
M0206
15 14
SMALL
MULLIKEN_CHARGES


@<TRIPOS>ATOM
    1   C1        -2.108619144     0.354952599    -0.329186855     C.3   1  noname   -0.350020
    2   C2        -1.237891642    -0.831336676     0.068886656     C.3   1  noname   -0.038338
    3   O3         0.112550575    -0.740511279    -0.391460714     O.3   1  noname   -0.238056
    4   C4         0.893939751     0.220588154     0.303366056     C.3   1  noname   -0.064975
    5   C5         2.329342834     0.021299515    -0.152684745     C.3   1  noname   -0.103193
    6   Cl6        3.400949957     1.221727289     0.650051159      Cl   1  noname   -0.145700
    7   H7        -1.788114198     1.286859737     0.157658224       H   1  noname    0.123361
    8   H8        -3.150815670     0.168154214    -0.029739626       H   1  noname    0.117156
    9   H9        -2.084077901     0.503702724    -1.418083156       H   1  noname    0.118808
   10   H10       -1.248189412    -0.966502788     1.169161906       H   1  noname    0.083151
   11   H11       -1.627316734    -1.755572353    -0.383597970       H   1  noname    0.113349
   12   H12        0.820361688     0.072233225     1.398955347       H   1  noname    0.089062
   13   H13        0.574805104     1.255796225     0.080274720       H   1  noname    0.095630
   14   H14        2.692499680    -0.978945935     0.112113625       H   1  noname    0.133219
   15   H15        2.420575112     0.167555350    -1.235714626       H   1  noname    0.133692


@<TRIPOS>BOND
    1      1      2    1
    2      2      3    1
    3      3      4    1
    4      4      5    1
    5      5      6    1
    6      1      7    1
    7      1      8    1
    8      1      9    1
    9      2     10    1
   10      2     11    1
   11      4     12    1
   12      4     13    1
   13      5     14    1
   14      5     15    1
#
#	File Created by: Spartan'20 Export
#

@<TRIPOS>MOLECULE
M0207
22 21
SMALL
MULLIKEN_CHARGES


@<TRIPOS>ATOM
    1   C1         3.854616261     0.540692817    -0.273429882     C.3   1  noname   -0.315016
    2   C2         2.556313783     0.371028914     0.490697786     C.3   1  noname   -0.052941
    3   O3         1.686447956    -0.454714494    -0.284215533     O.3   1  noname   -0.235162
    4   C4         0.464648494    -0.776149250     0.370962717     C.3   1  noname   -0.024121
    5   C5        -0.584436718     0.338573321     0.265046629     C.3   1  noname   -0.066242
    6   O6        -1.802328188    -0.055725695     0.893228742     O.3   1  noname   -0.245860
    7   C7        -2.706521211    -0.757312148     0.033396713     C.3   1  noname   -0.042407
    8   C8        -3.608763571     0.187670681    -0.750221065     C.3   1  noname   -0.328074
    9   H9         3.672139308     1.024194138    -1.243482545       H   1  noname    0.116158
   10   H10        4.555886138     1.164592969     0.299092993       H   1  noname    0.109948
   11   H11        4.324672611    -0.435319316    -0.457603951       H   1  noname    0.116328
   12   H12        2.095560962     1.358787253     0.686612304       H   1  noname    0.083102
   13   H13        2.738850884    -0.107029314     1.474796466       H   1  noname    0.084955
   14   H14        0.633625397    -1.017439794     1.438386040       H   1  noname    0.076278
   15   H15        0.082522100    -1.685081877    -0.119728323       H   1  noname    0.100947
   16   H16       -0.241952986     1.244693201     0.787801550       H   1  noname    0.109623
   17   H17       -0.732729489     0.604030729    -0.798249374       H   1  noname    0.077847
   18   H18       -3.308772424    -1.398801351     0.695633862       H   1  noname    0.109715
   19   H19       -2.153944490    -1.426033922    -0.653392323       H   1  noname    0.078923
   20   H20       -4.316980713    -0.383882179    -1.369641183       H   1  noname    0.110542
   21   H21       -4.182162940     0.826591556    -0.064417647       H   1  noname    0.116755
   22   H22       -3.026691164     0.836633762    -1.421273978       H   1  noname    0.112040


@<TRIPOS>BOND
    1      1      2    1
    2      2      3    1
    3      3      4    1
    4      4      5    1
    5      5      6    1
    6      6      7    1
    7      7      8    1
    8      1      9    1
    9      1     10    1
   10      1     11    1
   11      2     12    1
   12      2     13    1
   13      4     14    1
   14      4     15    1
   15      5     16    1
   16      5     17    1
   17      7     18    1
   18      7     19    1
   19      8     20    1
   20      8     21    1
   21      8     22    1
#
#	File Created by: Spartan'20 Export
#

@<TRIPOS>MOLECULE
M0208
26 25
SMALL
MULLIKEN_CHARGES


@<TRIPOS>ATOM
    1   C1        -2.921756031    -2.683695699     0.143849751     C.3   1  noname   -0.318548
    2   C2        -1.523494461    -2.164564389     0.399619109     C.3   1  noname   -0.074632
    3   O3        -1.524670248    -0.734427902     0.142197528     O.3   1  noname   -0.208961
    4   P4        -0.217155744     0.090779099     0.543827024       P   1  noname    0.847133
    5   O5         0.284238300    -0.028422539     1.932284204     O.2   1  noname   -0.434494
    6   O6         0.872388982    -0.344142482    -0.568913545     O.3   1  noname   -0.250843
    7   C7         2.232763819    -0.661357078    -0.163942559     C.3   1  noname   -0.051067
    8   C8         2.977479733    -1.147050101    -1.388334599     C.3   1  noname   -0.314762
    9   O9        -0.747209065     1.524785492     0.074710097     O.3   1  noname   -0.208693
   10   C10        0.101267919     2.676994125     0.322701543     C.3   1  noname   -0.073745
   11   C11       -0.738583497     3.922498758     0.134536017     C.3   1  noname   -0.318845
   12   H12       -3.227241871    -2.487309647    -0.893162688       H   1  noname    0.122614
   13   H13       -3.643598938    -2.201942056     0.817414978       H   1  noname    0.125042
   14   H14       -2.954153634    -3.769156349     0.317186161       H   1  noname    0.114169
   15   H15       -0.789627538    -2.640775890    -0.272484779       H   1  noname    0.106987
   16   H16       -1.211329889    -2.340964075     1.441493755       H   1  noname    0.124708
   17   H17        2.703657844     0.240178238     0.259611409       H   1  noname    0.106737
   18   H18        2.206060586    -1.422899451     0.629691037       H   1  noname    0.119163
   19   H19        2.992408371    -0.375792734    -2.171112844       H   1  noname    0.119388
   20   H20        4.016314559    -1.388581741    -1.119828124       H   1  noname    0.116579
   21   H21        2.508486841    -2.050753211    -1.802665668       H   1  noname    0.117790
   22   H22        0.504511784     2.613674840     1.346102755       H   1  noname    0.126442
   23   H23        0.942509845     2.652062429    -0.390815763       H   1  noname    0.104012
   24   H24       -1.151687305     3.965016922    -0.882651903       H   1  noname    0.122587
   25   H25       -1.571040723     3.938464425     0.851051124       H   1  noname    0.125352
   26   H26       -0.120539641     4.817381016     0.297635979       H   1  noname    0.113720


@<TRIPOS>BOND
    1      1      2    1
    2      2      3    1
    3      3      4    1
    4      4      5    2
    5      4      6    1
    6      6      7    1
    7      7      8    1
    8      4      9    1
    9      9     10    1
   10     10     11    1
   11      1     12    1
   12      1     13    1
   13      1     14    1
   14      2     15    1
   15      2     16    1
   16      7     17    1
   17      7     18    1
   18      8     19    1
   19      8     20    1
   20      8     21    1
   21     10     22    1
   22     10     23    1
   23     11     24    1
   24     11     25    1
   25     11     26    1
#
#	File Created by: Spartan'20 Export
#

@<TRIPOS>MOLECULE
M0209
15 14
SMALL
MULLIKEN_CHARGES


@<TRIPOS>ATOM
    1   C1         1.952324128    -0.573245850    -1.041204998     C.3   1  noname   -0.342924
    2   C2         1.221830538    -0.869273217     0.252574104     C.3   1  noname   -0.063479
    3   O3        -0.220233240    -0.637299545     0.103856586     O.3   1  noname   -0.198619
    4   S4        -0.744038189     0.793526663     0.666625168       S   1  noname    0.765034
    5   O5        -0.647011664     0.809469122     2.113366185     O.2   1  noname   -0.341196
    6   O6        -0.136935186     1.871184398    -0.092648303     O.2   1  noname   -0.348823
    7   C7        -2.444357873     0.593683096     0.179632149     C.3   1  noname   -0.334805
    8   H8         1.543850482    -1.175213718    -1.864747795       H   1  noname    0.116192
    9   H9         3.017792781    -0.823478698    -0.927172938       H   1  noname    0.116689
   10   H10        1.866956050     0.489336880    -1.301556791       H   1  noname    0.150020
   11   H11        1.598987344    -0.263616885     1.090814736       H   1  noname    0.127152
   12   H12        1.295985540    -1.927531895     0.537781966       H   1  noname    0.123552
   13   H13       -2.957321655     1.507608915     0.502771009       H   1  noname    0.155894
   14   H14       -2.858013885    -0.282969681     0.689380090       H   1  noname    0.154652
   15   H15       -2.489815172     0.487820416    -0.909471169       H   1  noname    0.153193


@<TRIPOS>BOND
    1      1      2    1
    2      2      3    1
    3      3      4    1
    4      4      5    2
    5      4      6    2
    6      4      7    1
    7      1      8    1
    8      1      9    1
    9      1     10    1
   10      2     11    1
   11      2     12    1
   12      7     13    1
   13      7     14    1
   14      7     15    1
#
#	File Created by: Spartan'20 Export
#

@<TRIPOS>MOLECULE
M0210
19 18
SMALL
MULLIKEN_CHARGES


@<TRIPOS>ATOM
    1   C1        -3.466986861     0.000246043     0.826966671     C.3   1  noname   -0.323463
    2   C2        -2.518820686    -0.000654932    -0.350516237     C.3   1  noname   -0.095075
    3   O3        -1.160950466     0.000224915     0.203947602     O.3   1  noname   -0.169901
    4   S4        -0.000008482     0.000578129    -0.899728308       S   1  noname    0.865896
    5   O5         0.000073210     1.246793406    -1.634549696     O.2   1  noname   -0.338133
    6   O6        -0.000216353    -1.244965947    -1.635691396     O.2   1  noname   -0.338178
    7   O7         1.161073635    -0.000052425     0.203810138     O.3   1  noname   -0.169902
    8   C8         2.518945107     0.000129235    -0.350638182     C.3   1  noname   -0.095053
    9   C9         3.466973942    -0.000354883     0.826948949     C.3   1  noname   -0.323453
   10   H10       -3.319083172     0.893834563     1.448088860       H   1  noname    0.128339
   11   H11       -4.503161346    -0.000585705     0.459547923       H   1  noname    0.121849
   12   H12       -3.318338833    -0.891891725     1.449986099       H   1  noname    0.128334
   13   H13       -2.639481033    -0.898690496    -0.975549908       H   1  noname    0.132384
   14   H14       -2.640016819     0.896086075    -0.977297084       H   1  noname    0.132345
   15   H15        2.639896290     0.897772650    -0.976172132       H   1  noname    0.132362
   16   H16        2.639839450    -0.897032274    -0.976865145       H   1  noname    0.132356
   17   H17        3.318591757     0.892297982     1.449296132       H   1  noname    0.128336
   18   H18        3.318458446    -0.893413604     1.448690273       H   1  noname    0.128335
   19   H19        4.503212213    -0.000321007     0.459725442       H   1  noname    0.121846


@<TRIPOS>BOND
    1      1      2    1
    2      2      3    1
    3      3      4    1
    4      4      5    2
    5      4      6    2
    6      4      7    1
    7      7      8    1
    8      8      9    1
    9      1     10    1
   10      1     11    1
   11      1     12    1
   12      2     13    1
   13      2     14    1
   14      8     15    1
   15      8     16    1
   16      9     17    1
   17      9     18    1
   18      9     19    1
#
#	File Created by: Spartan'20 Export
#

@<TRIPOS>MOLECULE
M0211
23 22
SMALL
MULLIKEN_CHARGES


@<TRIPOS>ATOM
    1   C1        -0.273085494     2.744568618     0.140995956     C.3   1  noname   -0.352583
    2   C2        -0.729770161     1.473044375    -0.580805815     C.3   1  noname   -0.227860
    3   P3        -0.331163840    -0.070108900     0.343890071       P   1  noname    0.579019
    4   O4        -0.457756903     0.074906834     1.832838288     O.2   1  noname   -0.475586
    5   C5        -1.470605594    -1.317323387    -0.376442349     C.3   1  noname   -0.198077
    6   C6        -1.335058728    -2.697319478     0.274426544     C.3   1  noname   -0.377424
    7   C7         1.341880185    -0.602240833    -0.203301887     C.3   1  noname   -0.233978
    8   C8         2.467763828     0.338389075     0.235474694     C.3   1  noname   -0.375165
    9   H9        -0.641727198     3.640163762    -0.379851536       H   1  noname    0.118992
   10   H10       -0.652731701     2.757178547     1.171470624       H   1  noname    0.146467
   11   H11        0.821314038     2.814961914     0.195755913       H   1  noname    0.113153
   12   H12       -0.305197081     1.401142759    -1.595502594       H   1  noname    0.110083
   13   H13       -1.826109821     1.478057327    -0.696646151       H   1  noname    0.113603
   14   H14       -2.483021018    -0.913033162    -0.214344095       H   1  noname    0.117934
   15   H15       -1.312063089    -1.363888865    -1.467095079       H   1  noname    0.107091
   16   H16       -0.358860003    -3.154256576     0.058371338       H   1  noname    0.116727
   17   H17       -1.436596358    -2.619685418     1.365803225       H   1  noname    0.149490
   18   H18       -2.110305245    -3.383707243    -0.095530901       H   1  noname    0.124148
   19   H19        1.327331691    -0.736399998    -1.297708323       H   1  noname    0.108291
   20   H20        1.488412488    -1.599906541     0.241637212       H   1  noname    0.120128
   21   H21        3.451912440    -0.108941366     0.034578656       H   1  noname    0.124147
   22   H22        2.424307376     1.296774841    -0.300251814       H   1  noname    0.114849
   23   H23        2.401130187     0.547623714     1.312238024       H   1  noname    0.148773


@<TRIPOS>BOND
    1      1      2    1
    2      2      3    1
    3      3      4    2
    4      3      5    1
    5      5      6    1
    6      3      7    1
    7      7      8    1
    8      1      9    1
    9      1     10    1
   10      1     11    1
   11      2     12    1
   12      2     13    1
   13      5     14    1
   14      5     15    1
   15      6     16    1
   16      6     17    1
   17      6     18    1
   18      7     19    1
   19      7     20    1
   20      8     21    1
   21      8     22    1
   22      8     23    1
#
#	File Created by: Spartan'20 Export
#

@<TRIPOS>MOLECULE
M0212
9 8
SMALL
MULLIKEN_CHARGES


@<TRIPOS>ATOM
    1   C1        -0.824872149    -0.474023224     0.182256078     C.3   1  noname   -0.321785
    2   C2         0.194888950     0.655453306     0.104946297     C.3   1  noname   -0.169746
    3   S3         1.494625973     0.408014645    -1.162499414     S.3   1  noname   -0.214716
    4   H4        -1.313698278    -0.631382248    -0.789010416       H   1  noname    0.124488
    5   H5        -1.599326356    -0.244350183     0.931217580       H   1  noname    0.113332
    6   H6        -0.344831526    -1.419946308     0.474020200       H   1  noname    0.110335
    7   H7        -0.286281230     1.599611610    -0.191166730       H   1  noname    0.124149
    8   H8         0.675289255     0.831996392     1.077969237       H   1  noname    0.130662
    9   H9         2.004205362    -0.725373991    -0.627732833       H   1  noname    0.137711


@<TRIPOS>BOND
    1      1      2    1
    2      2      3    1
    3      1      4    1
    4      1      5    1
    5      1      6    1
    6      2      7    1
    7      2      8    1
    8      3      9    1
#
#	File Created by: Spartan'20 Export
#

@<TRIPOS>MOLECULE
M0213
15 14
SMALL
MULLIKEN_CHARGES


@<TRIPOS>ATOM
    1   C1         1.917648050    -0.396708725     0.414325580     C.3   1  noname   -0.333212
    2   C2         1.267350233     0.648849100    -0.486112353     C.3   1  noname   -0.188359
    3   S3         0.000009257     0.000102015    -1.629427347     S.3   1  noname   -0.101022
    4   C4        -1.267245415    -0.648761629    -0.486137133     C.3   1  noname   -0.188362
    5   C5        -1.917706574     0.396682214     0.414296589     C.3   1  noname   -0.333185
    6   H6         1.199168784    -0.812491737     1.135372702       H   1  noname    0.115757
    7   H7         2.320120286    -1.228330254    -0.180457160       H   1  noname    0.120806
    8   H8         2.740955048     0.051683508     0.992074761       H   1  noname    0.115782
    9   H9         2.010752745     1.096059658    -1.163551451       H   1  noname    0.125943
   10   H10        0.840648321     1.474602210     0.103102453       H   1  noname    0.123035
   11   H11       -0.840512345    -1.474469345     0.103115477       H   1  noname    0.123033
   12   H12       -2.010595425    -1.096092807    -1.163550147       H   1  noname    0.125943
   13   H13       -2.320564366     1.228132744    -0.180461052       H   1  noname    0.120801
   14   H14       -2.740779596    -0.051956779     0.992199180       H   1  noname    0.115772
   15   H15       -1.199249004     0.812699829     1.135209902       H   1  noname    0.115751


@<TRIPOS>BOND
    1      1      2    1
    2      2      3    1
    3      3      4    1
    4      4      5    1
    5      1      6    1
    6      1      7    1
    7      1      8    1
    8      2      9    1
    9      2     10    1
   10      4     11    1
   11      4     12    1
   12      5     13    1
   13      5     14    1
   14      5     15    1
#
#	File Created by: Spartan'20 Export
#

@<TRIPOS>MOLECULE
M0214
16 15
SMALL
MULLIKEN_CHARGES


@<TRIPOS>ATOM
    1   C1        -2.644840487    -0.757656163    -0.574774647     C.3   1  noname   -0.331274
    2   C2        -2.056334328     0.608134710    -0.258007225     C.3   1  noname   -0.163005
    3   S3        -1.166515545     0.691116143     1.348487470     S.3   1  noname   -0.065324
    4   S4         0.431694037    -0.563658867     1.107269525     S.3   1  noname   -0.059908
    5   C5         1.722091266     0.509711529     0.348069884     C.3   1  noname   -0.162379
    6   C6         3.020517796    -0.282330440     0.236307049     C.3   1  noname   -0.350808
    7   H7        -1.850866072    -1.516925851    -0.618909113       H   1  noname    0.127678
    8   H8        -3.370013001    -1.064253838     0.192011526       H   1  noname    0.118163
    9   H9        -3.155504935    -0.741218224    -1.550211420       H   1  noname    0.113592
   10   H10       -2.840893143     1.374797190    -0.144638845       H   1  noname    0.119538
   11   H11       -1.373615983     0.953839754    -1.047782847       H   1  noname    0.121772
   12   H12        1.369477754     0.836182415    -0.640543113       H   1  noname    0.116560
   13   H13        1.839544203     1.394591712     0.988421645       H   1  noname    0.126409
   14   H14        3.804848197     0.342386881    -0.216036091       H   1  noname    0.124473
   15   H15        2.895919663    -1.174984860    -0.394069697       H   1  noname    0.123864
   16   H16        3.374490578    -0.609732092     1.224405899       H   1  noname    0.127561


@<TRIPOS>BOND
    1      1      2    1
    2      2      3    1
    3      3      4    1
    4      4      5    1
    5      5      6    1
    6      1      7    1
    7      1      8    1
    8      1      9    1
    9      2     10    1
   10      2     11    1
   11      5     12    1
   12      5     13    1
   13      6     14    1
   14      6     15    1
   15      6     16    1
#
#	File Created by: Spartan'20 Export
#

@<TRIPOS>MOLECULE
M0215
23 22
SMALL
MULLIKEN_CHARGES


@<TRIPOS>ATOM
    1   C1        -0.988145156     2.314415675    -0.478189398     C.3   1  noname   -0.373437
    2   C2        -0.871758182     1.538308316     0.831386803     C.3   1  noname   -0.287229
    3   As3        0.148202692    -0.146557889     0.720523178      As   1  noname    0.772866
    4   O4         0.315211007    -0.896916215     2.187486881     O.2   1  noname   -0.569284
    5   C5         1.880190638     0.312488162    -0.108101247     C.3   1  noname   -0.280692
    6   C6         2.852017377    -0.861988750    -0.003451136     C.3   1  noname   -0.356078
    7   C7        -0.783528972    -1.265127249    -0.612401955     C.3   1  noname   -0.275361
    8   C8        -2.124918256    -1.768984058    -0.086018961     C.3   1  noname   -0.363619
    9   H9        -1.521948831     1.739914472    -1.249226500       H   1  noname    0.123722
   10   H10       -1.545220938     3.251704167    -0.327921148       H   1  noname    0.130896
   11   H11       -0.001608241     2.582704188    -0.883390828       H   1  noname    0.128795
   12   H12       -0.361008416     2.119978400     1.613012339       H   1  noname    0.134301
   13   H13       -1.854578664     1.255286116     1.235358908       H   1  noname    0.133918
   14   H14        2.247793789     1.192453207     0.440604210       H   1  noname    0.123299
   15   H15        1.699341629     0.615767564    -1.150615555       H   1  noname    0.115381
   16   H16        3.853688448    -0.576644100    -0.357352776       H   1  noname    0.122008
   17   H17        2.518367378    -1.718540228    -0.608008533       H   1  noname    0.111720
   18   H18        2.931976249    -1.203715742     1.037932209       H   1  noname    0.151752
   19   H19       -0.882797341    -0.684539195    -1.542780825       H   1  noname    0.114475
   20   H20       -0.094691624    -2.099378302    -0.812165000       H   1  noname    0.120791
   21   H21       -2.840481752    -0.945541999     0.058313750       H   1  noname    0.112877
   22   H22       -2.581496556    -2.482765927    -0.787474081       H   1  noname    0.123567
   23   H23       -1.994606279    -2.272320611     0.882479664       H   1  noname    0.150646


@<TRIPOS>BOND
    1      1      2    1
    2      2      3    1
    3      3      4    2
    4      3      5    1
    5      5      6    1
    6      3      7    1
    7      7      8    1
    8      1      9    1
    9      1     10    1
   10      1     11    1
   11      2     12    1
   12      2     13    1
   13      5     14    1
   14      5     15    1
   15      6     16    1
   16      6     17    1
   17      6     18    1
   18      7     19    1
   19      7     20    1
   20      8     21    1
   21      8     22    1
   22      8     23    1
#
#	File Created by: Spartan'20 Export
#

@<TRIPOS>MOLECULE
M0216
17 17
SMALL
MULLIKEN_CHARGES


@<TRIPOS>ATOM
    1   C1         2.430257701    -0.689595195     0.138201621     C.3   1  noname   -0.364700
    2   C2         1.618752253     0.612381577     0.132741758     C.3   1  noname   -0.154548
    3   C3         0.133499354     0.352792366     0.094886103     C.2   1  noname    0.192628
    4   C4        -0.625730432     0.582722506    -1.061552380     C.2   1  noname   -0.148645
    5   C5        -1.991100398     0.301672704    -1.049882454     C.2   1  noname   -0.092850
    6   C6        -2.561389424    -0.203143875     0.117901679     C.2   1  noname   -0.065875
    7   C7        -1.728455959    -0.402289611     1.221495931     C.2   1  noname   -0.078406
    8   N8        -0.416093084    -0.137074925     1.223266226     N.2   1  noname   -0.166784
    9   H9         2.255608899    -1.269340683    -0.780727015       H   1  noname    0.110723
   10   H10        3.507501249    -0.482656546     0.211297246       H   1  noname    0.116119
   11   H11        2.138708995    -1.314924537     0.993592953       H   1  noname    0.130976
   12   H12        1.842591249     1.185191647     1.046589349       H   1  noname    0.100720
   13   H13        1.906807455     1.237790712    -0.726553268       H   1  noname    0.093738
   14   H14       -0.146032723     0.980578690    -1.958135526       H   1  noname    0.103871
   15   H15       -2.600854427     0.476230605    -1.938807562       H   1  noname    0.113305
   16   H16       -3.625545735    -0.436069680     0.177479072       H   1  noname    0.109584
   17   H17       -2.138524974    -0.794265753     2.158206267       H   1  noname    0.106940


@<TRIPOS>BOND
    1      1      2    1
    2      2      3    1
    3      3      4    2
    4      4      5    1
    5      5      6    2
    6      6      7    1
    7      7      8    2
    8      8      3    1
    9      1      9    1
   10      1     10    1
   11      1     11    1
   12      2     12    1
   13      2     13    1
   14      4     14    1
   15      5     15    1
   16      6     16    1
   17      7     17    1
#
#	File Created by: Spartan'20 Export
#

@<TRIPOS>MOLECULE
M0217
17 17
SMALL
MULLIKEN_CHARGES


@<TRIPOS>ATOM
    1   C1        -0.289677648    -2.341032880    -0.512355634     C.3   1  noname   -0.354109
    2   C2        -0.460852330    -1.402491909     0.691973107     C.3   1  noname   -0.190733
    3   C3        -0.028918643     0.009371501     0.387664570     C.2   1  noname    0.223192
    4   C4        -0.873798518     0.916952881    -0.261952613     C.2   1  noname   -0.196426
    5   C5        -0.409312555     2.195912570    -0.559948272     C.2   1  noname   -0.053001
    6   C6         0.897338312     2.532291419    -0.197175371     C.2   1  noname   -0.062151
    7   N7         1.727267781     1.688009528     0.432187243     N.2   1  noname   -0.130349
    8   C8         1.258745303     0.464044661     0.709602176     C.2   1  noname   -0.130425
    9   H9         0.763393191    -2.387535740    -0.825745252       H   1  noname    0.122246
   10   H10       -0.620002175    -3.361210293    -0.268786846       H   1  noname    0.119869
   11   H11       -0.876722784    -1.989201479    -1.373404646       H   1  noname    0.117138
   12   H12       -1.516491208    -1.402157658     1.008813196       H   1  noname    0.104825
   13   H13        0.122074492    -1.788964413     1.542909320       H   1  noname    0.106897
   14   H14       -1.892792992     0.621118503    -0.526346001       H   1  noname    0.107620
   15   H15       -1.047831993     2.925071530    -1.061666989       H   1  noname    0.108613
   16   H16        1.296118721     3.527553414    -0.416550200       H   1  noname    0.109839
   17   H17        1.951463047    -0.207731635     1.230782213       H   1  noname    0.102735


@<TRIPOS>BOND
    1      1      2    1
    2      2      3    1
    3      3      4    2
    4      4      5    1
    5      5      6    2
    6      6      7    1
    7      7      8    2
    8      8      3    1
    9      1      9    1
   10      1     10    1
   11      1     11    1
   12      2     12    1
   13      2     13    1
   14      4     14    1
   15      5     15    1
   16      6     16    1
   17      8     17    1
#
#	File Created by: Spartan'20 Export
#

@<TRIPOS>MOLECULE
M0218
17 17
SMALL
MULLIKEN_CHARGES


@<TRIPOS>ATOM
    1   C1        -0.658168843    -0.002277574    -2.273652044     C.3   1  noname   -0.360307
    2   C2         0.631049766     0.001177548    -1.437322950     C.3   1  noname   -0.194630
    3   C3         0.352540891     0.001532909     0.043734795     C.2   1  noname    0.163296
    4   C4         0.199864887     1.193509262     0.763214003     C.2   1  noname   -0.116668
    5   C5        -0.091822507     1.141229869     2.126884556     C.2   1  noname   -0.065274
    6   N6        -0.241134606    -0.000052220     2.816075945     N.2   1  noname   -0.135296
    7   C7        -0.094734390    -1.140461261     2.124977227     C.2   1  noname   -0.065430
    8   C8         0.196857350    -1.191080568     0.761337295     C.2   1  noname   -0.116754
    9   H9        -1.267200491    -0.892146657    -2.056049648       H   1  noname    0.121763
   10   H10       -0.429037025    -0.000326954    -3.349210606       H   1  noname    0.121375
   11   H11       -1.273455300     0.882672087    -2.053965028       H   1  noname    0.121831
   12   H12        1.233718349     0.886914966    -1.694851843       H   1  noname    0.106864
   13   H13        1.236849596    -0.882992339    -1.693401494       H   1  noname    0.106918
   14   H14        0.315150415     2.159665090     0.264769755       H   1  noname    0.100082
   15   H15       -0.207499620     2.067076716     2.699987288       H   1  noname    0.108905
   16   H16       -0.212679405    -2.067479469     2.695998972       H   1  noname    0.108856
   17   H17        0.309700934    -2.156961406     0.261473778       H   1  noname    0.100113


@<TRIPOS>BOND
    1      1      2    1
    2      2      3    1
    3      3      4    2
    4      4      5    1
    5      5      6    2
    6      6      7    1
    7      7      8    2
    8      8      3    1
    9      1      9    1
   10      1     10    1
   11      1     11    1
   12      2     12    1
   13      2     13    1
   14      4     14    1
   15      5     15    1
   16      7     16    1
   17      8     17    1
#
#	File Created by: Spartan'20 Export
#

@<TRIPOS>MOLECULE
M0219
7 6
SMALL
MULLIKEN_CHARGES


@<TRIPOS>ATOM
    1   C1        -0.658480858    -0.040873752     0.049668552     C.3   1  noname   -0.289384
    2   N2         0.835982254     0.051197599    -0.091295293       N   1  noname    0.361706
    3   O3         1.456207026    -1.006275461    -0.173890452       O   1  noname   -0.250028
    4   O4         1.328143708     1.177090226    -0.085247201     O.2   1  noname   -0.249272
    5   H5        -0.870474791    -0.058657965     1.126298568       H   1  noname    0.157535
    6   H6        -0.991115524    -0.971401183    -0.418133691       H   1  noname    0.157826
    7   H7        -1.100261816     0.848920535    -0.407400483       H   1  noname    0.157848


@<TRIPOS>BOND
    1      1      2    1
    2      2      3    1
    3      2      4    2
    4      1      5    1
    5      1      6    1
    6      1      7    1
#
#	File Created by: Spartan'20 Export
#

@<TRIPOS>MOLECULE
M0220
15 14
SMALL
MULLIKEN_CHARGES


@<TRIPOS>ATOM
    1   C1        -1.019258201    -1.323756694    -1.079246953     C.3   1  noname   -0.288402
    2   N2        -0.510663495    -0.364819920    -0.113464413   N.pl3   1  noname    0.032013
    3   C3        -1.433750329     0.636963171     0.383418880     C.3   1  noname   -0.311994
    4   C4         0.827803175    -0.190949155     0.037280277     C.2   1  noname   -0.034167
    5   C5         1.448253388     0.841355704     0.684848564     C.2   1  noname   -0.098640
    6   C6         2.851237356     0.865634591     0.839645355     C.1   1  noname   -0.304338
    7   N7         4.013090507     0.904692663     0.972995137     N.1   1  noname    0.025934
    8   H8        -1.289028199    -0.844934042    -2.038473590       H   1  noname    0.132056
    9   H9        -1.913224050    -1.824293683    -0.678678540       H   1  noname    0.135236
   10   H10       -0.254607291    -2.085126885    -1.277976678       H   1  noname    0.136202
   11   H11       -1.397925700     1.568396409    -0.211471011       H   1  noname    0.137316
   12   H12       -2.455488662     0.238894140     0.347492399       H   1  noname    0.136448
   13   H13       -1.194136263     0.884792748     1.428194888       H   1  noname    0.145890
   14   H14        1.438625462    -0.984878705    -0.399270525       H   1  noname    0.123689
   15   H15        0.889072301     1.678029657     1.104706209       H   1  noname    0.127267


@<TRIPOS>BOND
    1      1      2    1
    2      2      3    1
    3      2      4    1
    4      4      5    2
    5      5      6    1
    6      6      7    3
    7      1      8    1
    8      1      9    1
    9      1     10    1
   10      3     11    1
   11      3     12    1
   12      3     13    1
   13      4     14    1
   14      5     15    1
#
#	File Created by: Spartan'20 Export
#

@<TRIPOS>MOLECULE
M0221
16 15
SMALL
MULLIKEN_CHARGES


@<TRIPOS>ATOM
    1   C1        -1.174662229    -1.269548262     0.296977037     C.3   1  noname   -0.320370
    2   N2        -0.779702739     0.124222620     0.199554647   N.pl3   1  noname    0.052512
    3   C3        -1.835425096     1.120791059     0.125432501     C.3   1  noname   -0.291159
    4   C4         0.504521992     0.454192996    -0.051733000     C.2   1  noname    0.016410
    5   C5         1.548368932    -0.410528132    -0.197318144     C.2   1  noname   -0.253088
    6   N6         2.865926904     0.105222589    -0.400295894       N   1  noname    0.397084
    7   O7         3.772626172    -0.735912966    -0.531680984       O   1  noname   -0.309091
    8   O8         3.048195593     1.335540891    -0.439474754     O.2   1  noname   -0.318291
    9   H9        -0.485792562    -1.809949185     0.962252848       H   1  noname    0.150046
   10   H10       -2.186370588    -1.334015852     0.715976145       H   1  noname    0.139057
   11   H11       -1.169928881    -1.766706910    -0.689359823       H   1  noname    0.144848
   12   H12       -1.394246437     2.124658464     0.124432287       H   1  noname    0.141797
   13   H13       -2.504726921     1.031604264     0.994619312       H   1  noname    0.139092
   14   H14       -2.438565318     1.003481166    -0.791725146       H   1  noname    0.137825
   15   H15        0.725119861     1.521138963    -0.131632253       H   1  noname    0.148776
   16   H16        1.504661317    -1.494191705    -0.186024779       H   1  noname    0.129502


@<TRIPOS>BOND
    1      1      2    1
    2      2      3    1
    3      2      4    1
    4      4      5    2
    5      5      6    1
    6      6      7    1
    7      6      8    2
    8      1      9    1
    9      1     10    1
   10      1     11    1
   11      3     12    1
   12      3     13    1
   13      3     14    1
   14      4     15    1
   15      5     16    1
#
#	File Created by: Spartan'20 Export
#

@<TRIPOS>MOLECULE
M0222
14 13
SMALL
MULLIKEN_CHARGES


@<TRIPOS>ATOM
    1   C1        -1.144629521    -1.242383308    -0.677251864     C.3   1  noname   -0.273025
    2   N2        -0.317731005    -0.115101952    -0.291031271   N.pl3   1  noname    0.057780
    3   C3        -0.491593696     1.119876998    -1.038375650     C.3   1  noname   -0.298826
    4   C4         0.569559826    -0.215677884     0.716240754     C.2   1  noname    0.070361
    5   N5         1.329140539     0.778094360     1.085098483     N.2   1  noname   -0.223605
    6   C6         2.184984123     0.618223120     2.084057346     C.1   1  noname   -0.147415
    7   N7         2.973415525     0.578196358     2.953629746     N.1   1  noname   -0.038388
    8   H8        -0.950503203    -1.524341314    -1.724933943       H   1  noname    0.137723
    9   H9        -0.925718759    -2.104301481    -0.034992790       H   1  noname    0.135258
   10   H10       -2.213561472    -0.991872573    -0.580327886       H   1  noname    0.137681
   11   H11        0.197554539     1.874416741    -0.644567480       H   1  noname    0.175327
   12   H12       -1.527771335     1.480440021    -0.939212504       H   1  noname    0.132445
   13   H13       -0.280996662     0.948700680    -2.105838540       H   1  noname    0.131987
   14   H14        0.597851100    -1.204269764     1.197505599       H   1  noname    0.107318


@<TRIPOS>BOND
    1      1      2    1
    2      2      3    1
    3      2      4    1
    4      4      5    2
    5      5      6    1
    6      6      7    3
    7      1      8    1
    8      1      9    1
    9      1     10    1
   10      3     11    1
   11      3     12    1
   12      3     13    1
   13      4     14    1
#
#	File Created by: Spartan'20 Export
#

@<TRIPOS>MOLECULE
M0223
13 12
SMALL
MULLIKEN_CHARGES


@<TRIPOS>ATOM
    1   C1        -1.385143506     0.000000368    -0.042867343     C.3   1  noname   -0.274009
    2   N2         0.000560655     0.000009532    -0.486006681     N.3   1  noname   -0.109550
    3   C3         0.692986006    -1.200753732    -0.044035172     C.3   1  noname   -0.274084
    4   C4         0.692996122     1.200800546    -0.044114732     C.3   1  noname   -0.274064
    5   H5        -1.483486078    -0.000193301     1.068082244       H   1  noname    0.083296
    6   H6        -1.901696194    -0.890607291    -0.430156581       H   1  noname    0.120418
    7   H7        -1.901643715     0.890747436    -0.429891610       H   1  noname    0.120413
    8   H8         0.740575631    -1.289547584     1.067048951       H   1  noname    0.083212
    9   H9         1.723078868    -1.203411397    -0.429514344       H   1  noname    0.120397
   10   H10        0.179043448    -2.092042677    -0.432869683       H   1  noname    0.120255
   11   H11        1.723031979     1.203419145    -0.429734260       H   1  noname    0.120396
   12   H12        0.178976511     2.092054135    -0.432896172       H   1  noname    0.120251
   13   H13        0.740720273     1.289524821     1.066955381       H   1  noname    0.083211


@<TRIPOS>BOND
    1      1      2    1
    2      2      3    1
    3      2      4    1
    4      1      5    1
    5      1      6    1
    6      1      7    1
    7      3      8    1
    8      3      9    1
    9      3     10    1
   10      4     11    1
   11      4     12    1
   12      4     13    1
#
#	File Created by: Spartan'20 Export
#

@<TRIPOS>MOLECULE
M0224
11 10
SMALL
MULLIKEN_CHARGES


@<TRIPOS>ATOM
    1   C1        -0.004386620     1.244529141    -0.440020247     C.3   1  noname   -0.275340
    2   N2        -0.276672084     0.000032737     0.282371376   N.pl3   1  noname   -0.044461
    3   C3        -0.004390711    -1.244482543    -0.440002350     C.3   1  noname   -0.275357
    4   C4        -0.081102409     0.000044972     1.603489440     C.1   1  noname   -0.146838
    5   N5         0.044940640    -0.000093099     2.768875063     N.1   1  noname   -0.013309
    6   H6        -0.574532086     1.236954227    -1.379653130       H   1  noname    0.132474
    7   H7        -0.333717390     2.096697488     0.165917950       H   1  noname    0.154956
    8   H8         1.069042887     1.363472230    -0.673651535       H   1  noname    0.124776
    9   H9         1.069040907    -1.363504336    -0.673588528       H   1  noname    0.124779
   10   H10       -0.574486208    -1.237000059    -1.379675586       H   1  noname    0.132479
   11   H11       -0.333736926    -2.096650758     0.165937546       H   1  noname    0.154961


@<TRIPOS>BOND
    1      1      2    1
    2      2      3    1
    3      2      4    1
    4      4      5    3
    5      1      6    1
    6      1      7    1
    7      1      8    1
    8      3      9    1
    9      3     10    1
   10      3     11    1
#
#	File Created by: Spartan'20 Export
#

@<TRIPOS>MOLECULE
M0225
21 20
SMALL
MULLIKEN_CHARGES


@<TRIPOS>ATOM
    1   C1        -1.668160034    -0.886063423     1.598229804     C.3   1  noname   -0.359137
    2   N2        -0.934759213    -0.499140071     0.410945438   N.pl3   1  noname   -0.068735
    3   C3        -1.763988696    -0.388644371    -0.783647906     C.3   1  noname   -0.296359
    4   C4         0.159996961     0.365206039     0.580660864     C.2   1  noname    0.123164
    5   N5         0.469439551     1.013648230     1.656198316     N.2   1  noname   -0.373720
    6   N6         0.967263363     0.482221489    -0.553522665   N.pl3   1  noname   -0.086079
    7   C7         1.994933029     1.510030243    -0.514612812     C.3   1  noname   -0.268780
    8   C8         1.377089525    -0.721625732    -1.266603912     C.3   1  noname   -0.288043
    9   H9        -0.969722850    -1.153279962     2.402330278       H   1  noname    0.152317
   10   H10       -2.282350362    -1.768369270     1.365115895       H   1  noname    0.125750
   11   H11       -2.349887836    -0.092950174     1.970121613       H   1  noname    0.118798
   12   H12       -2.655052671     0.243752871    -0.600711044       H   1  noname    0.110888
   13   H13       -1.188584961     0.065585645    -1.596610145       H   1  noname    0.152781
   14   H14       -2.113767871    -1.382775514    -1.106400694       H   1  noname    0.127060
   15   H15       -0.297906590     0.993634235     2.334744755       H   1  noname    0.186327
   16   H16        2.871619039     1.204168998     0.086531332       H   1  noname    0.109983
   17   H17        2.325715788     1.716030420    -1.544010145       H   1  noname    0.110861
   18   H18        1.586535410     2.422411239    -0.067245156       H   1  noname    0.142815
   19   H19        1.519365251    -0.500914711    -2.336159170       H   1  noname    0.125613
   20   H20        0.619319416    -1.505736914    -1.166285654       H   1  noname    0.146204
   21   H21        2.332903753    -1.117189267    -0.869068991       H   1  noname    0.110867


@<TRIPOS>BOND
    1      1      2    1
    2      2      3    1
    3      2      4    1
    4      4      5    2
    5      4      6    1
    6      6      7    1
    7      6      8    1
    8      1      9    1
    9      1     10    1
   10      1     11    1
   11      3     12    1
   12      3     13    1
   13      3     14    1
   14      5     15    1
   15      7     16    1
   16      7     17    1
   17      7     18    1
   18      8     19    1
   19      8     20    1
   20      8     21    1
#
#	File Created by: Spartan'20 Export
#

@<TRIPOS>MOLECULE
M0226
15 14
SMALL
MULLIKEN_CHARGES


@<TRIPOS>ATOM
    1   C1        -1.721640935     0.285097881     0.814408642     C.3   1  noname   -0.295600
    2   N2        -0.462174735     0.039268293     0.123050876   N.pl3   1  noname   -0.008406
    3   C3        -0.590709440    -0.214927714    -1.305373423     C.3   1  noname   -0.300818
    4   C4         0.691274179     0.115318331     0.846366308     C.2   1  noname    0.109720
    5   O5         0.753225712     0.358013076     2.044969066     O.2   1  noname   -0.286702
    6   C6         2.029087337    -0.134001893     0.073384046     C.3   1  noname    0.427912
    7   F7         3.070750977    -0.004519937     0.898863572       F   1  noname   -0.089563
    8   F8         2.199209083     0.753788563    -0.950408365       F   1  noname   -0.128924
    9   F9         2.078883652    -1.388949541    -0.461895310       F   1  noname   -0.129211
   10   H10       -1.515133936     0.462438529     1.874523883       H   1  noname    0.171456
   11   H11       -2.224624306     1.165062346     0.382782267       H   1  noname    0.128681
   12   H12       -2.385443022    -0.586495665     0.704148609       H   1  noname    0.129454
   13   H13        0.360591608    -0.490066395    -1.763842043       H   1  noname    0.155845
   14   H14       -1.302521649    -1.040309066    -1.464232593       H   1  noname    0.130754
   15   H15       -0.980774523     0.680283194    -1.816745537       H   1  noname    0.132581


@<TRIPOS>BOND
    1      1      2    1
    2      2      3    1
    3      2      4    1
    4      4      5    2
    5      4      6    1
    6      6      7    1
    7      6      8    1
    8      6      9    1
    9      1     10    1
   10      1     11    1
   11      1     12    1
   12      3     13    1
   13      3     14    1
   14      3     15    1
#
#	File Created by: Spartan'20 Export
#

@<TRIPOS>MOLECULE
M0227
15 14
SMALL
MULLIKEN_CHARGES


@<TRIPOS>ATOM
    1   C1        -1.055633350     0.730633424     0.642044828     C.3   1  noname   -0.295849
    2   N2        -0.372910252    -0.235786936    -0.199794363   N.pl3   1  noname   -0.003741
    3   C3        -1.221867900    -0.932465843    -1.153918396     C.3   1  noname   -0.293825
    4   C4         0.977474092    -0.465255485    -0.223695001     C.2   1  noname    0.193785
    5   O5         1.507260291    -1.289984638    -0.969433479     O.2   1  noname   -0.318348
    6   C6         1.858962976     0.322049746     0.747708407     C.3   1  noname   -0.176246
    7   Cl7        1.994266243     2.068616528     0.302988623      Cl   1  noname   -0.135504
    8   H8        -1.467814841     1.554085791     0.034868072       H   1  noname    0.132646
    9   H9        -0.381361617     1.166547732     1.382851066       H   1  noname    0.144012
   10   H10       -1.890093810     0.241223458     1.170688566       H   1  noname    0.127364
   11   H11       -0.614943950    -1.656857295    -1.706695374       H   1  noname    0.168358
   12   H12       -2.033777164    -1.457343551    -0.625664462       H   1  noname    0.122514
   13   H13       -1.673710774    -0.218180831    -1.862583511       H   1  noname    0.124356
   14   H14        1.510654113     0.275206854     1.787747465       H   1  noname    0.142914
   15   H15        2.863495942    -0.102488954     0.672887560       H   1  noname    0.159667


@<TRIPOS>BOND
    1      1      2    1
    2      2      3    1
    3      2      4    1
    4      4      5    2
    5      4      6    1
    6      6      7    1
    7      1      8    1
    8      1      9    1
    9      1     10    1
   10      3     11    1
   11      3     12    1
   12      3     13    1
   13      6     14    1
   14      6     15    1
#
#	File Created by: Spartan'20 Export
#

@<TRIPOS>MOLECULE
M0228
12 11
SMALL
MULLIKEN_CHARGES


@<TRIPOS>ATOM
    1   C1        -0.176180830     1.128283885    -0.736904787     C.3   1  noname   -0.290458
    2   N2         0.137062431    -0.083293473     0.002474043   N.pl3   1  noname   -0.013354
    3   C3        -0.988273751    -0.689569760     0.710005870     C.3   1  noname   -0.285733
    4   C4         1.353051777    -0.671096451     0.136215610     C.2   1  noname    0.224731
    5   O5         1.612945333    -1.666222936     0.767466508     O.2   1  noname   -0.249832
    6   Cl6        2.693045930     0.181864526    -0.760321451      Cl   1  noname   -0.141731
    7   H7        -0.485026797     1.929708534    -0.045569613       H   1  noname    0.130300
    8   H8        -1.008260628     0.928511904    -1.430272717       H   1  noname    0.127913
    9   H9         0.691810743     1.464592681    -1.307936243       H   1  noname    0.152172
   10   H10       -1.409859128     0.028565703     1.431201210       H   1  noname    0.128742
   11   H11       -0.644162133    -1.581772975     1.240621542       H   1  noname    0.169394
   12   H12       -1.776152947    -0.969571639    -0.006979972       H   1  noname    0.130092


@<TRIPOS>BOND
    1      1      2    1
    2      2      3    1
    3      2      4    1
    4      4      5    2
    5      4      6    1
    6      1      7    1
    7      1      8    1
    8      1      9    1
    9      3     10    1
   10      3     11    1
   11      3     12    1
#
#	File Created by: Spartan'20 Export
#

@<TRIPOS>MOLECULE
M0229
20 19
SMALL
MULLIKEN_CHARGES


@<TRIPOS>ATOM
    1   C1        -2.395684317     0.340255083    -0.837887854     C.3   1  noname   -0.298491
    2   N2        -1.176488884     0.073110234    -0.092307909   N.pl3   1  noname   -0.078139
    3   C3        -1.374011443    -0.698600766     1.126634696     C.3   1  noname   -0.305525
    4   C4         0.001137594     0.000063095    -0.835348537     C.2   1  noname    0.248663
    5   O5         0.002046501     0.002154391    -2.068371987     O.2   1  noname   -0.349744
    6   N6         1.177357733    -0.076109768    -0.090523170    N.am   1  noname   -0.078838
    7   C7         1.373468528     0.697895850     1.127317958     C.3   1  noname   -0.305098
    8   C8         2.396214981    -0.340202742    -0.837861898     C.3   1  noname   -0.298082
    9   H9        -3.127153563     0.819139411    -0.169337269       H   1  noname    0.119011
   10   H10       -2.845070269    -0.584964738    -1.243807199       H   1  noname    0.115433
   11   H11       -2.174770493     1.006823703    -1.677803809       H   1  noname    0.153990
   12   H12       -2.078430933    -1.530765193     0.943183128       H   1  noname    0.121284
   13   H13       -1.791189103    -0.075647105     1.935802470       H   1  noname    0.127828
   14   H14       -0.426835702    -1.130786337     1.466364304       H   1  noname    0.150631
   15   H15        1.794126665     0.077050696     1.936132969       H   1  noname    0.127859
   16   H16        2.073572479     1.533376249     0.942392687       H   1  noname    0.121187
   17   H17        0.424820256     1.126058092     1.468065089       H   1  noname    0.150519
   18   H18        2.840278359     0.585623406    -1.248056844       H   1  noname    0.115397
   19   H19        3.130770143    -0.814178301    -0.169413770       H   1  noname    0.118952
   20   H20        2.175841466    -1.010295256    -1.675173054       H   1  noname    0.153750


@<TRIPOS>BOND
    1      1      2    1
    2      2      3    1
    3      2      4    1
    4      4      5    2
    5      4      6    am
    6      6      7    1
    7      6      8    1
    8      1      9    1
    9      1     10    1
   10      1     11    1
   11      3     12    1
   12      3     13    1
   13      3     14    1
   14      7     15    1
   15      7     16    1
   16      7     17    1
   17      8     18    1
   18      8     19    1
   19      8     20    1
#
#	File Created by: Spartan'20 Export
#

@<TRIPOS>MOLECULE
M0230
23 23
SMALL
MULLIKEN_CHARGES


@<TRIPOS>ATOM
    1   C1         2.766387221    -0.032659897    -1.251541761     C.3   1  noname   -0.298735
    2   N2         2.368958991     0.175768358     0.130867670   N.pl3   1  noname   -0.028866
    3   C3         3.425066906     0.514984467     1.068142227     C.3   1  noname   -0.292413
    4   C4         1.073948021     0.234204119     0.564727376     C.2   1  noname    0.300967
    5   O5         0.715543601     0.453550193     1.708626560     O.2   1  noname   -0.323420
    6   O6         0.202433479     0.016885660    -0.496754778     O.3   1  noname   -0.225292
    7   C7        -1.161026392    -0.102169244    -0.237234180     C.2   1  noname    0.250084
    8   C8        -2.014069933     0.598730783    -1.089945838     C.2   1  noname   -0.161630
    9   C9        -3.395093965     0.453575434    -0.949706860     C.2   1  noname   -0.097338
   10   C10       -3.916587702    -0.380327415     0.041960822     C.2   1  noname   -0.095439
   11   C11       -3.049069684    -1.073676115     0.889885746     C.2   1  noname   -0.104959
   12   C12       -1.666004639    -0.943991032     0.755890527     C.2   1  noname   -0.123553
   13   H13        3.624534269    -0.721978586    -1.282185609       H   1  noname    0.123095
   14   H14        3.070977676     0.915368727    -1.728989425       H   1  noname    0.122383
   15   H15        1.943488379    -0.467082477    -1.824336275       H   1  noname    0.159727
   16   H16        3.924776926     1.452945534     0.771514988       H   1  noname    0.119556
   17   H17        4.180824888    -0.286345408     1.099187598       H   1  noname    0.122616
   18   H18        2.986860185     0.640098746     2.063261147       H   1  noname    0.167825
   19   H19       -1.584121002     1.247024724    -1.854562334       H   1  noname    0.114111
   20   H20       -4.064784870     0.998783043    -1.617223804       H   1  noname    0.110782
   21   H21       -4.996395879    -0.491036623     0.153403807       H   1  noname    0.109740
   22   H22       -3.451087798    -1.727411362     1.666018151       H   1  noname    0.110900
   23   H23       -0.985558678    -1.475241631     1.418994243       H   1  noname    0.124203


@<TRIPOS>BOND
    1      1      2    1
    2      2      3    1
    3      2      4    1
    4      4      5    2
    5      4      6    1
    6      6      7    1
    7      7      8    2
    8      8      9    1
    9      9     10    2
   10     10     11    1
   11     11     12    2
   12     12      7    1
   13      1     13    1
   14      1     14    1
   15      1     15    1
   16      3     16    1
   17      3     17    1
   18      3     18    1
   19      8     19    1
   20      9     20    1
   21     10     21    1
   22     11     22    1
   23     12     23    1
#
#	File Created by: Spartan'20 Export
#

@<TRIPOS>MOLECULE
M0231
22 22
SMALL
MULLIKEN_CHARGES


@<TRIPOS>ATOM
    1   C1        -3.086539257    -0.682805042    -0.697753086     C.3   1  noname   -0.303706
    2   N2        -1.766604499    -0.422463294    -0.147284527   N.pl3   1  noname   -0.008550
    3   C3        -1.648446486    -0.594259247     1.290583575     C.3   1  noname   -0.319194
    4   C4        -0.824537215     0.180410195    -0.951624127     C.2   1  noname    0.192386
    5   O5        -1.085262693     0.569739274    -2.093392778     O.2   1  noname   -0.320505
    6   C6         0.578151601     0.311322919    -0.421762836     C.2   1  noname    0.098053
    7   C7         1.241635270     1.534764724    -0.588911058     C.2   1  noname   -0.159222
    8   C8         2.571964925     1.673624675    -0.196537383     C.2   1  noname   -0.104976
    9   C9         3.263548638     0.582654347     0.338361975     C.2   1  noname   -0.080377
   10   C10        2.617073789    -0.647276294     0.481258952     C.2   1  noname   -0.103747
   11   C11        1.278154955    -0.780449065     0.111087976     C.2   1  noname   -0.151846
   12   H12       -3.036659705    -0.614136439    -1.789227863       H   1  noname    0.164983
   13   H13       -3.420057945    -1.688513568    -0.396829017       H   1  noname    0.120387
   14   H14       -3.825611891     0.050768222    -0.331086859       H   1  noname    0.123000
   15   H15       -1.730267578    -1.657645822     1.573495399       H   1  noname    0.126994
   16   H16       -0.690017576    -0.207619981     1.648733871       H   1  noname    0.166589
   17   H17       -2.458158639    -0.045156438     1.801726557       H   1  noname    0.125894
   18   H18        0.701356268     2.367224852    -1.042656812       H   1  noname    0.127287
   19   H19        3.075937455     2.634119586    -0.318801239       H   1  noname    0.113875
   20   H20        4.308993693     0.688306538     0.633717837       H   1  noname    0.113453
   21   H21        3.158111481    -1.507525394     0.879969133       H   1  noname    0.112435
   22   H22        0.777235408    -1.745084748     0.216932308       H   1  noname    0.124176


@<TRIPOS>BOND
    1      1      2    1
    2      2      3    1
    3      2      4    1
    4      4      5    2
    5      4      6    1
    6      6      7    2
    7      7      8    1
    8      8      9    2
    9      9     10    1
   10     10     11    2
   11     11      6    1
   12      1     12    1
   13      1     13    1
   14      1     14    1
   15      3     15    1
   16      3     16    1
   17      3     17    1
   18      7     18    1
   19      8     19    1
   20      9     20    1
   21     10     21    1
   22     11     22    1
#
#	File Created by: Spartan'20 Export
#

@<TRIPOS>MOLECULE
M0232
26 26
SMALL
MULLIKEN_CHARGES


@<TRIPOS>ATOM
    1   C1         0.029561565     1.190780086    -2.444785211     C.3   1  noname   -0.296563
    2   N2        -0.357246034     0.000767901    -1.693888482     N.3   1  noname   -0.063195
    3   C3         0.025497872    -1.190861578    -2.444214129     C.3   1  noname   -0.296855
    4   C4         0.173617879     0.000545837    -0.316872111     C.3   1  noname    0.004395
    5   C5        -0.269625419    -1.255535812     0.450436724     C.3   1  noname   -0.169088
    6   C6         0.200853396    -1.252673280     1.909122301     C.3   1  noname   -0.160180
    7   C7        -0.263359086    -0.000220416     2.652542524     C.3   1  noname   -0.154072
    8   C8         0.198930376     1.253148371     1.909468667     C.3   1  noname   -0.160251
    9   C9        -0.271875033     1.255549517     0.450929129     C.3   1  noname   -0.168438
   10   H10       -0.349827253     1.103380130    -3.472495328       H   1  noname    0.117070
   11   H11       -0.409060844     2.095907595    -2.007339390       H   1  noname    0.132947
   12   H12        1.134493170     1.331909241    -2.501593768       H   1  noname    0.083446
   13   H13       -0.353307861    -1.102454062    -3.472061704       H   1  noname    0.117088
   14   H14       -0.416600260    -2.094225490    -2.006579554       H   1  noname    0.133133
   15   H15        1.129880913    -1.336198569    -2.500767418       H   1  noname    0.083509
   16   H16        1.293972735     0.001309100    -0.351274442       H   1  noname    0.015458
   17   H17       -1.372079285    -1.308988379     0.407730583       H   1  noname    0.084501
   18   H18        0.113626414    -2.160770410    -0.041047153       H   1  noname    0.092996
   19   H19       -0.162229521    -2.162222059     2.413218615       H   1  noname    0.097578
   20   H20        1.304359745    -1.301192335     1.936302420       H   1  noname    0.080142
   21   H21       -1.366229296    -0.001126662     2.717408656       H   1  noname    0.076289
   22   H22        0.114865173    -0.000136799     3.687392503       H   1  noname    0.094897
   23   H23       -0.165347001     2.162025660     2.413894588       H   1  noname    0.097569
   24   H24        1.302370046     1.303118335     1.936458713       H   1  noname    0.080111
   25   H25       -1.374467791     1.306458084     0.408481451       H   1  noname    0.084354
   26   H26        0.109225400     2.161705994    -0.040468186       H   1  noname    0.092699


@<TRIPOS>BOND
    1      1      2    1
    2      2      3    1
    3      2      4    1
    4      4      5    1
    5      5      6    1
    6      6      7    1
    7      7      8    1
    8      8      9    1
    9      9      4    1
   10      1     10    1
   11      1     11    1
   12      1     12    1
   13      3     13    1
   14      3     14    1
   15      3     15    1
   16      4     16    1
   17      5     17    1
   18      5     18    1
   19      6     19    1
   20      6     20    1
   21      7     21    1
   22      7     22    1
   23      8     23    1
   24      8     24    1
   25      9     25    1
   26      9     26    1
#
#	File Created by: Spartan'20 Export
#

@<TRIPOS>MOLECULE
M0233
20 20
SMALL
MULLIKEN_CHARGES


@<TRIPOS>ATOM
    1   C1        -1.987940626     0.439466156    -1.284546419     C.3   1  noname   -0.281988
    2   N2        -1.743970955    -0.118822992     0.030215333   N.pl3   1  noname    0.016420
    3   C3        -2.816900423    -0.881237027     0.628061001     C.3   1  noname   -0.270396
    4   C4        -0.458125330    -0.255287402     0.490299526     C.2   1  noname   -0.001201
    5   N5         0.575582878     0.170925803    -0.138932805     N.2   1  noname   -0.224774
    6   C6         1.838309461     0.035428785     0.498311554     C.3   1  noname    0.028348
    7   C7         2.847597600     1.150015388     0.312460816     C.3   1  noname   -0.205453
    8   C8         3.052673200    -0.173575504    -0.380235622     C.3   1  noname   -0.202667
    9   H9        -2.921107768     1.023839065    -1.273714159       H   1  noname    0.116866
   10   H10       -1.144525207     1.085860962    -1.552420601       H   1  noname    0.151673
   11   H11       -2.080984017    -0.349890325    -2.054258580       H   1  noname    0.110794
   12   H12       -2.521947130    -1.211609213     1.633179211       H   1  noname    0.122404
   13   H13       -3.722516499    -0.260250526     0.721150668       H   1  noname    0.125663
   14   H14       -3.079386832    -1.777247715     0.032264712       H   1  noname    0.114392
   15   H15       -0.405249359    -0.748618476     1.479698628       H   1  noname    0.052288
   16   H16        1.853408003    -0.474201252     1.473936209       H   1  noname    0.048389
   17   H17        2.522423713     1.992768509    -0.297118148       H   1  noname    0.103088
   18   H18        3.489968320     1.407112224     1.155278003       H   1  noname    0.104170
   19   H19        2.863614120    -0.216592159    -1.452760194       H   1  noname    0.102904
   20   H20        3.839076851    -0.838084300    -0.020869132       H   1  noname    0.104084


@<TRIPOS>BOND
    1      1      2    1
    2      2      3    1
    3      2      4    1
    4      4      5    2
    5      5      6    1
    6      6      7    1
    7      7      8    1
    8      8      6    1
    9      1      9    1
   10      1     10    1
   11      1     11    1
   12      3     12    1
   13      3     13    1
   14      3     14    1
   15      4     15    1
   16      6     16    1
   17      7     17    1
   18      7     18    1
   19      8     19    1
   20      8     20    1
#
#	File Created by: Spartan'20 Export
#

@<TRIPOS>MOLECULE
M0234
26 26
SMALL
MULLIKEN_CHARGES


@<TRIPOS>ATOM
    1   C1        -2.932406885     1.094635981    -0.142858773     C.3   1  noname   -0.299660
    2   N2        -2.885223956    -0.328088554     0.141692108   N.pl3   1  noname    0.015200
    3   C3        -4.193335589    -0.950522160     0.249661700     C.3   1  noname   -0.273968
    4   C4        -1.756939462    -1.098196083     0.320947442     C.2   1  noname   -0.067541
    5   N5        -0.493433888    -0.881609793     0.278264961     N.2   1  noname   -0.191830
    6   C6         0.156277050     0.369245416    -0.016848110     C.3   1  noname   -0.196225
    7   C7         1.671642636     0.221183993    -0.058241039     C.2   1  noname    0.206942
    8   C8         2.463401456     1.346460163    -0.321258008     C.2   1  noname   -0.255023
    9   C9         3.849167915     1.215902649    -0.366539829     C.2   1  noname    0.208915
   10   C10        4.479154893    -0.012399253    -0.156206698     C.2   1  noname   -0.213675
   11   C11        3.668028713    -1.116646056     0.102009882     C.2   1  noname    0.216539
   12   C12        2.278118112    -1.017476941     0.154857971     C.2   1  noname   -0.219687
   13   Cl13       4.419235709    -2.672176818     0.362162587      Cl   1  noname   -0.110333
   14   Cl14       4.834044222     2.618523189    -0.699847472      Cl   1  noname   -0.113346
   15   H15       -1.933443794     1.528660781    -0.153635221       H   1  noname    0.147859
   16   H16       -3.530144857     1.616058492     0.624980273       H   1  noname    0.124271
   17   H17       -3.407282604     1.282811458    -1.121981511       H   1  noname    0.127088
   18   H18       -4.085469622    -2.019088804     0.472121445       H   1  noname    0.127744
   19   H19       -4.759388438    -0.847944829    -0.692646126       H   1  noname    0.125509
   20   H20       -4.787184568    -0.483512658     1.054714400       H   1  noname    0.125038
   21   H21       -2.043478533    -2.135075129     0.551557579       H   1  noname    0.102306
   22   H22       -0.072805833     1.146099726     0.740750304       H   1  noname    0.111133
   23   H23       -0.158427498     0.787918684    -0.994565610       H   1  noname    0.111128
   24   H24        2.006452910     2.322880072    -0.492310028       H   1  noname    0.113388
   25   H25        5.562890067    -0.103997888    -0.196138992       H   1  noname    0.131327
   26   H26        1.650551847    -1.883645636     0.359356765       H   1  noname    0.145441


@<TRIPOS>BOND
    1      1      2    1
    2      2      3    1
    3      2      4    1
    4      4      5    2
    5      5      6    1
    6      6      7    1
    7      7      8    2
    8      8      9    1
    9      9     10    2
   10     10     11    1
   11     11     12    2
   12     11     13    1
   13      9     14    1
   14     12      7    1
   15      1     15    1
   16      1     16    1
   17      1     17    1
   18      3     18    1
   19      3     19    1
   20      3     20    1
   21      4     21    1
   22      6     22    1
   23      6     23    1
   24      8     24    1
   25     10     25    1
   26     12     26    1
#
#	File Created by: Spartan'20 Export
#

@<TRIPOS>MOLECULE
M0235
26 26
SMALL
MULLIKEN_CHARGES


@<TRIPOS>ATOM
    1   C1        -4.220116362     0.424223606    -0.666783471     C.3   1  noname   -0.275545
    2   N2        -2.883417575     0.378314284    -0.098712950   N.pl3   1  noname    0.009710
    3   C3        -2.614920088     1.438599550     0.858301298     C.3   1  noname   -0.307389
    4   C4        -1.960630986    -0.498202988    -0.633373919     C.2   1  noname   -0.064853
    5   N5        -0.703709149    -0.695463468    -0.476335569     N.2   1  noname   -0.190394
    6   C6         0.178901861     0.077982485     0.364455905     C.3   1  noname   -0.196090
    7   C7         1.637790101    -0.296451349     0.157091965     C.2   1  noname    0.200630
    8   C8         2.029121882    -1.256075665    -0.779636057     C.2   1  noname   -0.136257
    9   C9         3.376260546    -1.579931239    -0.957859592     C.2   1  noname   -0.174369
   10   C10        4.342641407    -0.935181753    -0.187845956     C.2   1  noname    0.224546
   11   C11        3.977743508     0.026765672     0.756584447     C.2   1  noname   -0.171700
   12   C12        2.628568967     0.336365107     0.919585115     C.2   1  noname   -0.170288
   13   Cl13       6.031112715    -1.334228677    -0.402777667      Cl   1  noname   -0.125344
   14   H14       -4.981797856     0.352396885     0.127547942       H   1  noname    0.126913
   15   H15       -4.392575629     1.365496598    -1.219955387       H   1  noname    0.121922
   16   H16       -4.362840709    -0.412963400    -1.361063082       H   1  noname    0.126868
   17   H17       -1.692209732     1.254171096     1.410248182       H   1  noname    0.152200
   18   H18       -2.545406481     2.425676013     0.365277415       H   1  noname    0.126986
   19   H19       -3.440534827     1.486945051     1.587132922       H   1  noname    0.124648
   20   H20       -2.459437600    -1.178591396    -1.340065450       H   1  noname    0.099626
   21   H21       -0.051425893    -0.078351357     1.437942421       H   1  noname    0.107071
   22   H22        0.086611525     1.167537248     0.183965300       H   1  noname    0.109296
   23   H23        1.255452432    -1.750313390    -1.368669212       H   1  noname    0.131355
   24   H24        3.676832140    -2.329688690    -1.690494268       H   1  noname    0.116039
   25   H25        4.743162712     0.522096791     1.354040629       H   1  noname    0.115664
   26   H26        2.344823091     1.088872987     1.661399037       H   1  noname    0.099305


@<TRIPOS>BOND
    1      1      2    1
    2      2      3    1
    3      2      4    1
    4      4      5    2
    5      5      6    1
    6      6      7    1
    7      7      8    2
    8      8      9    1
    9      9     10    2
   10     10     11    1
   11     11     12    2
   12     10     13    1
   13     12      7    1
   14      1     14    1
   15      1     15    1
   16      1     16    1
   17      3     17    1
   18      3     18    1
   19      3     19    1
   20      4     20    1
   21      6     21    1
   22      6     22    1
   23      8     23    1
   24      9     24    1
   25     11     25    1
   26     12     26    1
#
#	File Created by: Spartan'20 Export
#

@<TRIPOS>MOLECULE
M0236
26 26
SMALL
MULLIKEN_CHARGES


@<TRIPOS>ATOM
    1   C1        -2.892575244     1.467458837    -1.010354839     C.3   1  noname   -0.282284
    2   N2        -2.904857937     0.428936895     0.001863267   N.pl3   1  noname    0.016555
    3   C3        -4.040339082    -0.468986374     0.018542100     C.3   1  noname   -0.275047
    4   C4        -1.748456741     0.092823082     0.648586012     C.2   1  noname    0.022499
    5   N5        -0.632027631     0.701527458     0.477043122     N.2   1  noname   -0.252438
    6   C6         0.475970565     0.293551122     1.307146314     C.3   1  noname   -0.119772
    7   C7         1.721682144    -0.067296811     0.515431715     C.2   1  noname    0.155720
    8   C8         1.747859543    -0.005439212    -0.881092460     C.2   1  noname   -0.155012
    9   C9         2.905971051    -0.351895029    -1.580778804     C.2   1  noname   -0.091512
   10   C10        4.053091754    -0.767588514    -0.905049310     C.2   1  noname   -0.148779
   11   C11        4.017815252    -0.825821973     0.489856960     C.2   1  noname    0.203856
   12   C12        2.872095649    -0.479078990     1.202076199     C.2   1  noname   -0.241207
   13   Cl13       5.439899736    -1.354856497     1.359749634      Cl   1  noname   -0.122950
   14   H14       -3.866536371     1.978688212    -1.022223738       H   1  noname    0.121017
   15   H15       -2.699692381     1.055351449    -2.018088663       H   1  noname    0.114867
   16   H16       -2.095957049     2.182201110    -0.773930941       H   1  noname    0.154504
   17   H17       -4.121001639    -1.055297165    -0.916384358       H   1  noname    0.120230
   18   H18       -3.942517107    -1.172116991     0.856411461       H   1  noname    0.125083
   19   H19       -4.977372487     0.096224187     0.146958067       H   1  noname    0.128720
   20   H20       -1.876776194    -0.747699659     1.358614428       H   1  noname    0.060140
   21   H21        0.220762442    -0.567179942     1.965685039       H   1  noname    0.067086
   22   H22        0.738657969     1.126420448     1.986815283       H   1  noname    0.110314
   23   H23        0.849736041     0.321292715    -1.405986458       H   1  noname    0.130121
   24   H24        2.918740365    -0.299191401    -2.671444240       H   1  noname    0.108787
   25   H25        4.959566446    -1.045776982    -1.442157400       H   1  noname    0.118212
   26   H26        2.876260908    -0.536249974     2.292711609       H   1  noname    0.112565


@<TRIPOS>BOND
    1      1      2    1
    2      2      3    1
    3      2      4    1
    4      4      5    2
    5      5      6    1
    6      6      7    1
    7      7      8    2
    8      8      9    1
    9      9     10    2
   10     10     11    1
   11     11     12    2
   12     11     13    1
   13     12      7    1
   14      1     14    1
   15      1     15    1
   16      1     16    1
   17      3     17    1
   18      3     18    1
   19      3     19    1
   20      4     20    1
   21      6     21    1
   22      6     22    1
   23      8     23    1
   24      9     24    1
   25     10     25    1
   26     12     26    1
#
#	File Created by: Spartan'20 Export
#

@<TRIPOS>MOLECULE
M0237
26 26
SMALL
MULLIKEN_CHARGES


@<TRIPOS>ATOM
    1   C1        -2.938071307    -0.844573641     0.313715337     C.3   1  noname   -0.314076
    2   N2        -2.799192626     0.598402988     0.230315071   N.pl3   1  noname    0.010041
    3   C3        -4.015502331     1.301419543    -0.134899147     C.3   1  noname   -0.275666
    4   C4        -1.619870615     1.309418410     0.340573105     C.2   1  noname   -0.065988
    5   N5        -0.383301549     0.987060708     0.430057439     N.2   1  noname   -0.188804
    6   C6         0.153093383    -0.349732226     0.321309095     C.3   1  noname   -0.178719
    7   C7         1.646147613    -0.347253622     0.029319107     C.2   1  noname    0.181368
    8   C8         2.388015554     0.835424212    -0.027906355     C.2   1  noname   -0.140225
    9   C9         3.761713441     0.798405317    -0.286210237     C.2   1  noname   -0.107277
   10   C10        4.410357292    -0.420479760    -0.489554503     C.2   1  noname   -0.084515
   11   C11        3.674109837    -1.607917660    -0.435938990     C.2   1  noname   -0.111558
   12   C12        2.303816895    -1.567848334    -0.179179725     C.2   1  noname   -0.175649
   13   H13       -2.089587128    -1.287917846     0.838423438       H   1  noname    0.156341
   14   H14       -3.030203234    -1.315116771    -0.682395098       H   1  noname    0.128144
   15   H15       -3.851999249    -1.084731103     0.882013967       H   1  noname    0.122507
   16   H16       -4.832135941     1.058931060     0.566254995       H   1  noname    0.123739
   17   H17       -3.842984079     2.384835069    -0.109009524       H   1  noname    0.125510
   18   H18       -4.350402728     1.030894068    -1.153036768       H   1  noname    0.122306
   19   H19       -1.832736380     2.389370433     0.367783799       H   1  noname    0.097495
   20   H20       -0.340451331    -0.952201693    -0.466999380       H   1  noname    0.106943
   21   H21        0.010090350    -0.909425588     1.268502058       H   1  noname    0.105532
   22   H22        1.865506004     1.778983691     0.133698632       H   1  noname    0.125648
   23   H23        4.328437365     1.731144394    -0.329301988       H   1  noname    0.102582
   24   H24        5.483018007    -0.448537370    -0.691100274       H   1  noname    0.102865
   25   H25        4.169706974    -2.567784627    -0.596524511       H   1  noname    0.101859
   26   H26        1.732425784    -2.500769653    -0.139909544       H   1  noname    0.093033


@<TRIPOS>BOND
    1      1      2    1
    2      2      3    1
    3      2      4    1
    4      4      5    2
    5      5      6    1
    6      6      7    1
    7      7      8    2
    8      8      9    1
    9      9     10    2
   10     10     11    1
   11     11     12    2
   12     12      7    1
   13      1     13    1
   14      1     14    1
   15      1     15    1
   16      3     16    1
   17      3     17    1
   18      3     18    1
   19      4     19    1
   20      6     20    1
   21      6     21    1
   22      8     22    1
   23      9     23    1
   24     10     24    1
   25     11     25    1
   26     12     26    1
#
#	File Created by: Spartan'20 Export
#

@<TRIPOS>MOLECULE
M0238
23 23
SMALL
MULLIKEN_CHARGES


@<TRIPOS>ATOM
    1   C1        -3.323558049    -0.795924770     1.037839993     C.3   1  noname   -0.272350
    2   N2        -2.425156920    -0.070952812     0.166347763   N.pl3   1  noname    0.042038
    3   C3        -3.026634571     0.747454277    -0.869558719     C.3   1  noname   -0.291841
    4   C4        -1.077451440    -0.231842764     0.246933516     C.2   1  noname    0.030931
    5   N5        -0.246612466     0.298598065    -0.586413494     N.2   1  noname   -0.231276
    6   C6         1.123390465     0.193896330    -0.347544960     C.2   1  noname    0.166561
    7   C7         1.703339719     0.273815945     0.935922580     C.2   1  noname   -0.182736
    8   C8         3.083032227     0.172557800     1.113738454     C.2   1  noname   -0.189465
    9   C9         3.905227803     0.000438622     0.000395458     C.2   1  noname    0.198448
   10   C10        3.362316584    -0.054377864    -1.285332903     C.2   1  noname   -0.168786
   11   C11        1.985256234     0.050633135    -1.452619921     C.2   1  noname   -0.145371
   12   Br12       5.795049034    -0.139448017     0.228465599      Br   1  noname   -0.105435
   13   H13       -2.747190297    -1.358656444     1.783482741       H   1  noname    0.127640
   14   H14       -3.946265480    -1.509899871     0.469753161       H   1  noname    0.127566
   15   H15       -3.999191650    -0.102008385     1.565632698       H   1  noname    0.128883
   16   H16       -3.600676922     0.125127540    -1.577434858       H   1  noname    0.121773
   17   H17       -2.229910533     1.266773268    -1.413127883       H   1  noname    0.163368
   18   H18       -3.712947095     1.482712348    -0.419055218       H   1  noname    0.121842
   19   H19       -0.764057935    -0.875727133     1.087971786       H   1  noname    0.079851
   20   H20        1.064870595     0.449769139     1.804432536       H   1  noname    0.108086
   21   H21        3.516253949     0.242295881     2.111966350       H   1  noname    0.119193
   22   H22        4.013976266    -0.176569143    -2.150513936       H   1  noname    0.121755
   23   H23        1.546940481     0.011334851    -2.451280741       H   1  noname    0.103813


@<TRIPOS>BOND
    1      1      2    1
    2      2      3    1
    3      2      4    1
    4      4      5    2
    5      5      6    1
    6      6      7    2
    7      7      8    1
    8      8      9    2
    9      9     10    1
   10     10     11    2
   11      9     12    1
   12     11      6    1
   13      1     13    1
   14      1     14    1
   15      1     15    1
   16      3     16    1
   17      3     17    1
   18      3     18    1
   19      4     19    1
   20      7     20    1
   21      8     21    1
   22     10     22    1
   23     11     23    1
#
#	File Created by: Spartan'20 Export
#

@<TRIPOS>MOLECULE
M0239
24 24
SMALL
MULLIKEN_CHARGES


@<TRIPOS>ATOM
    1   C1         2.610781694    -2.643584916     0.806581518     C.3   1  noname   -0.271887
    2   N2         2.315417314    -1.284740172     0.402165249   N.pl3   1  noname    0.044718
    3   C3         3.438699212    -0.383633031     0.221231509     C.3   1  noname   -0.293320
    4   C4         1.038017733    -0.838419050     0.320254288     C.2   1  noname    0.037712
    5   N5         0.726236668     0.399019765     0.107883885     N.2   1  noname   -0.232733
    6   C6        -0.598220203     0.739526243    -0.128677917     C.2   1  noname    0.186398
    7   C7        -1.486204761    -0.060536326    -0.884724318     C.2   1  noname   -0.198176
    8   C8        -2.797437610     0.337982325    -1.106941936     C.2   1  noname   -0.171761
    9   C9        -3.266756611     1.560114466    -0.590714389     C.2   1  noname    0.267926
   10   C10       -2.382641922     2.377065249     0.143717555     C.2   1  noname   -0.155079
   11   C11       -1.074099802     1.975216559     0.361525061     C.2   1  noname   -0.153633
   12   C12       -4.612784382     1.969612304    -0.820402671     C.1   1  noname   -0.303610
   13   N13       -5.716642439     2.300391505    -1.007215656     N.1   1  noname    0.061003
   14   H14        3.276585385    -3.129323675     0.074643880       H   1  noname    0.133049
   15   H15        1.680197629    -3.221860473     0.870314681       H   1  noname    0.129623
   16   H16        3.108345780    -2.668807155     1.791573257       H   1  noname    0.131184
   17   H17        3.057576389     0.582109663    -0.128146314       H   1  noname    0.164998
   18   H18        4.141977923    -0.799329782    -0.517607619       H   1  noname    0.126207
   19   H19        3.979334870    -0.235526478     1.171199905       H   1  noname    0.125661
   20   H20        0.285243074    -1.631735925     0.473062549       H   1  noname    0.088391
   21   H21       -1.127740565    -0.990640621    -1.330266724       H   1  noname    0.113661
   22   H22       -3.470198196    -0.287317724    -1.695828622       H   1  noname    0.125791
   23   H23       -2.738943005     3.329406188     0.538426532       H   1  noname    0.127850
   24   H24       -0.386744174     2.605011065     0.927946298       H   1  noname    0.108458


@<TRIPOS>BOND
    1      1      2    1
    2      2      3    1
    3      2      4    1
    4      4      5    2
    5      5      6    1
    6      6      7    2
    7      7      8    1
    8      8      9    2
    9      9     10    1
   10     10     11    2
   11      9     12    1
   12     12     13    3
   13     11      6    1
   14      1     14    1
   15      1     15    1
   16      1     16    1
   17      3     17    1
   18      3     18    1
   19      3     19    1
   20      4     20    1
   21      7     21    1
   22      8     22    1
   23     10     23    1
   24     11     24    1
#
#	File Created by: Spartan'20 Export
#

@<TRIPOS>MOLECULE
M0240
26 26
SMALL
MULLIKEN_CHARGES


@<TRIPOS>ATOM
    1   C1         3.664567939     0.989752090     0.712273182     C.3   1  noname   -0.290996
    2   N2         3.094809836    -0.092354806    -0.069148939   N.pl3   1  noname    0.038924
    3   C3         4.009370212    -1.074172894    -0.612529902     C.3   1  noname   -0.271881
    4   C4         1.751605001    -0.285137873    -0.115469572     C.2   1  noname    0.035470
    5   N5         0.904400321     0.456516403     0.518759964     N.2   1  noname   -0.232500
    6   C6        -0.457546149     0.291931946     0.287629980     C.2   1  noname    0.183116
    7   C7        -1.007240097     0.025512608    -0.985595790     C.2   1  noname   -0.198820
    8   C8        -2.381288203    -0.114245333    -1.155747001     C.2   1  noname   -0.171309
    9   C9        -3.244266103     0.017634606    -0.063461448     C.2   1  noname    0.079224
   10   C10       -2.715842051     0.306449244     1.202181144     C.2   1  noname   -0.153914
   11   C11       -1.345408008     0.448639091     1.372746440     C.2   1  noname   -0.156119
   12   C12       -4.729878559    -0.070931462    -0.256368025     C.3   1  noname    0.422657
   13   F13       -5.368017710    -0.549748042     0.848307380       F   1  noname   -0.134169
   14   F14       -5.289406316     1.151012507    -0.521084280       F   1  noname   -0.132811
   15   F15       -5.071819784    -0.880031912    -1.297785628       F   1  noname   -0.134267
   16   H16        4.441521573     1.507296927     0.128370586       H   1  noname    0.124441
   17   H17        4.122481960     0.608776279     1.641613155       H   1  noname    0.123297
   18   H18        2.864125372     1.690431916     0.973365607       H   1  noname    0.163249
   19   H19        3.453608331    -1.810017150    -1.207949001       H   1  noname    0.128890
   20   H20        4.551076534    -1.609055947     0.187982173       H   1  noname    0.128399
   21   H21        4.753655969    -0.588421206    -1.263695774       H   1  noname    0.132168
   22   H22        1.452495138    -1.149475623    -0.734707868       H   1  noname    0.085782
   23   H23       -0.348185375    -0.040061213    -1.853532123       H   1  noname    0.111104
   24   H24       -2.790699012    -0.318925857    -2.146157524       H   1  noname    0.124323
   25   H25       -3.387080251     0.415536838     2.055127540       H   1  noname    0.126530
   26   H26       -0.927040568     0.673088863     2.354875725       H   1  noname    0.105485


@<TRIPOS>BOND
    1      1      2    1
    2      2      3    1
    3      2      4    1
    4      4      5    2
    5      5      6    1
    6      6      7    2
    7      7      8    1
    8      8      9    2
    9      9     10    1
   10     10     11    2
   11      9     12    1
   12     12     13    1
   13     12     14    1
   14     12     15    1
   15     11      6    1
   16      1     16    1
   17      1     17    1
   18      1     18    1
   19      3     19    1
   20      3     20    1
   21      3     21    1
   22      4     22    1
   23      7     23    1
   24      8     24    1
   25     10     25    1
   26     11     26    1
#
#	File Created by: Spartan'20 Export
#

@<TRIPOS>MOLECULE
M0241
23 23
SMALL
MULLIKEN_CHARGES


@<TRIPOS>ATOM
    1   C1        -3.439461698     0.792797527    -0.404393368     C.3   1  noname   -0.271068
    2   N2        -2.404129346    -0.008667238     0.211907297   N.pl3   1  noname    0.032909
    3   C3        -2.790480119    -0.848735183     1.329205111     C.3   1  noname   -0.290129
    4   C4        -1.090008799     0.205999105    -0.075460672     C.2   1  noname    0.031291
    5   N5        -0.121968443    -0.318966575     0.595826626     N.2   1  noname   -0.217796
    6   C6         1.188166010    -0.179513186     0.130312738     C.2   1  noname    0.234027
    7   C7         1.545010862    -0.269717841    -1.231270878     C.2   1  noname   -0.230664
    8   C8         2.873828643    -0.139942363    -1.638111183     C.2   1  noname   -0.168268
    9   C9         3.853538932     0.072167371    -0.675892684     C.2   1  noname    0.293901
   10   C10        3.544917109     0.143929749     0.679794526     C.2   1  noname   -0.147993
   11   C11        2.216792347     0.007842310     1.074423875     C.2   1  noname   -0.192683
   12   F12        5.152266757     0.192449485    -1.067394716       F   1  noname   -0.166630
   13   H13       -3.862298182     1.527693280     0.304680316       H   1  noname    0.124296
   14   H14       -4.261717030     0.152591789    -0.762873790       H   1  noname    0.129412
   15   H15       -3.023840204     1.338207708    -1.261720006       H   1  noname    0.126887
   16   H16       -3.626493432    -1.503267757     1.036238231       H   1  noname    0.121534
   17   H17       -3.111202646    -0.242163269     2.194723850       H   1  noname    0.119525
   18   H18       -1.926575497    -1.453894994     1.625859396       H   1  noname    0.161311
   19   H19       -0.936638461     0.879256780    -0.938349175       H   1  noname    0.080106
   20   H20        0.775753168    -0.480932347    -1.976849576       H   1  noname    0.106731
   21   H21        3.156794989    -0.219177678    -2.688693096       H   1  noname    0.106309
   22   H22        4.342165583     0.297401519     1.407822832       H   1  noname    0.105891
   23   H23        1.945579458     0.054641809     2.130214344       H   1  noname    0.088335


@<TRIPOS>BOND
    1      1      2    1
    2      2      3    1
    3      2      4    1
    4      4      5    2
    5      5      6    1
    6      6      7    2
    7      7      8    1
    8      8      9    2
    9      9     10    1
   10     10     11    2
   11      9     12    1
   12     11      6    1
   13      1     13    1
   14      1     14    1
   15      1     15    1
   16      3     16    1
   17      3     17    1
   18      3     18    1
   19      4     19    1
   20      7     20    1
   21      8     21    1
   22     10     22    1
   23     11     23    1
#
#	File Created by: Spartan'20 Export
#

@<TRIPOS>MOLECULE
M0242
25 25
SMALL
MULLIKEN_CHARGES


@<TRIPOS>ATOM
    1   C1         3.525471993    -0.943905302     0.029771469     C.3   1  noname   -0.291575
    2   N2         2.844104262     0.271744175    -0.378359537   N.pl3   1  noname    0.042998
    3   C3         3.646275193     1.301820657    -1.006198672     C.3   1  noname   -0.272965
    4   C4         1.491919473     0.350261995    -0.363690261     C.2   1  noname    0.038340
    5   N5         0.727234774    -0.631856547    -0.008592274     N.2   1  noname   -0.229751
    6   C6        -0.631507317    -0.422242487     0.160060537     C.2   1  noname    0.189111
    7   C7        -1.177623963     0.759850613     0.715344383     C.2   1  noname   -0.185535
    8   C8        -2.549274001     0.907543614     0.873977571     C.2   1  noname   -0.137969
    9   C9        -3.397169630    -0.132764473     0.488271832     C.2   1  noname    0.047627
   10   C10       -2.887719363    -1.323689208    -0.040196506     C.2   1  noname   -0.122416
   11   C11       -1.517659933    -1.466176869    -0.192496309     C.2   1  noname   -0.139763
   12   N12       -4.847305071     0.019680130     0.656242772       N   1  noname    0.389230
   13   O13       -5.570940597    -0.921110318     0.308256393       O   1  noname   -0.276075
   14   O14       -5.265571879     1.082008380     1.132895762     O.2   1  noname   -0.276839
   15   H15        3.886043765    -1.508097805    -0.847363803       H   1  noname    0.127141
   16   H16        4.389161865    -0.687214947     0.661245887       H   1  noname    0.127225
   17   H17        2.824132017    -1.573574252     0.588066556       H   1  noname    0.164594
   18   H18        4.451262356     1.628877751    -0.329272015       H   1  noname    0.135147
   19   H19        4.108640916     0.935692462    -1.939595830       H   1  noname    0.131688
   20   H20        3.017108108     2.168088258    -1.247566520       H   1  noname    0.130938
   21   H21        1.099594603     1.325363383    -0.702316991       H   1  noname    0.092230
   22   H22       -0.508968916     1.551715530     1.057758217       H   1  noname    0.115993
   23   H23       -2.981318470     1.809961781     1.305268560       H   1  noname    0.145594
   24   H24       -3.580108253    -2.116341546    -0.321187336       H   1  noname    0.147488
   25   H25       -1.095781932    -2.385634976    -0.600323886       H   1  noname    0.109960


@<TRIPOS>BOND
    1      1      2    1
    2      2      3    1
    3      2      4    1
    4      4      5    2
    5      5      6    1
    6      6      7    2
    7      7      8    1
    8      8      9    2
    9      9     10    1
   10     10     11    2
   11      9     12    1
   12     12     13    1
   13     12     14    2
   14     11      6    1
   15      1     15    1
   16      1     16    1
   17      1     17    1
   18      3     18    1
   19      3     19    1
   20      3     20    1
   21      4     21    1
   22      7     22    1
   23      8     23    1
   24     10     24    1
   25     11     25    1
#
#	File Created by: Spartan'20 Export
#

@<TRIPOS>MOLECULE
M0243
31 31
SMALL
MULLIKEN_CHARGES


@<TRIPOS>ATOM
    1   C1         4.725274776    -0.591201284    -0.045873354     C.3   1  noname   -0.282528
    2   N2         3.877192358    -0.159700698     1.047841806   N.pl3   1  noname    0.023604
    3   C3         4.532066550     0.442218728     2.189403899     C.3   1  noname   -0.270978
    4   C4         2.538311091     0.024179439     0.843336051     C.2   1  noname    0.025443
    5   N5         1.957741753    -0.211883204    -0.282253757     N.2   1  noname   -0.224813
    6   C6         0.559337934    -0.174331387    -0.353618661     C.2   1  noname    0.159348
    7   C7        -0.045167671     0.319385523    -1.523020802     C.2   1  noname   -0.190187
    8   C8        -1.425909125     0.383618150    -1.664634006     C.2   1  noname   -0.164038
    9   C9        -2.292523117    -0.080162032    -0.646715436     C.2   1  noname    0.199926
   10   C10       -1.685977558    -0.589997744     0.523553458     C.2   1  noname   -0.186238
   11   C11       -0.300190417    -0.640255002     0.658564333     C.2   1  noname   -0.227167
   12   N12       -3.677623488    -0.068885256    -0.805509265   N.pl3   1  noname   -0.006504
   13   C13       -4.515713034    -0.310989180     0.351584559     C.3   1  noname   -0.299275
   14   C14       -4.255517699     0.686337669    -1.899379420     C.3   1  noname   -0.300138
   15   H15        4.120441714    -1.171418731    -0.752180188       H   1  noname    0.156781
   16   H16        5.547195477    -1.207585981     0.348682788       H   1  noname    0.117014
   17   H17        5.161796791     0.267214542    -0.589202868       H   1  noname    0.113921
   18   H18        5.055031169     1.379697380     1.920936014       H   1  noname    0.118652
   19   H19        5.274070091    -0.253112427     2.612493951       H   1  noname    0.126866
   20   H20        3.788233683     0.672127941     2.964172930       H   1  noname    0.125059
   21   H21        2.002921147     0.383920548     1.740790431       H   1  noname    0.072630
   22   H22        0.600383605     0.675632453    -2.328229094       H   1  noname    0.090178
   23   H23       -1.831551024     0.795726042    -2.587720383       H   1  noname    0.093826
   24   H24       -2.298333031    -0.976091968     1.337812480       H   1  noname    0.091597
   25   H25        0.123212987    -1.082739673     1.563548823       H   1  noname    0.097997
   26   H26       -4.364668443     0.431032518     1.161630106       H   1  noname    0.116402
   27   H27       -5.568373935    -0.275397928     0.045317707       H   1  noname    0.118944
   28   H28       -4.329137713    -1.311682386     0.772335990       H   1  noname    0.132507
   29   H29       -4.047289207     1.773740817    -1.837620133       H   1  noname    0.117120
   30   H30       -3.881926087     0.326080583    -2.870368826       H   1  noname    0.133360
   31   H31       -5.343309571     0.544522548    -1.895679135       H   1  noname    0.118927


@<TRIPOS>BOND
    1      1      2    1
    2      2      3    1
    3      2      4    1
    4      4      5    2
    5      5      6    1
    6      6      7    2
    7      7      8    1
    8      8      9    2
    9      9     10    1
   10     10     11    2
   11      9     12    1
   12     12     13    1
   13     12     14    1
   14     11      6    1
   15      1     15    1
   16      1     16    1
   17      1     17    1
   18      3     18    1
   19      3     19    1
   20      3     20    1
   21      4     21    1
   22      7     22    1
   23      8     23    1
   24     10     24    1
   25     11     25    1
   26     13     26    1
   27     13     27    1
   28     13     28    1
   29     14     29    1
   30     14     30    1
   31     14     31    1
#
#	File Created by: Spartan'20 Export
#

@<TRIPOS>MOLECULE
M0244
27 27
SMALL
MULLIKEN_CHARGES


@<TRIPOS>ATOM
    1   C1        -3.869082900     1.282618973    -0.230925994     C.3   1  noname   -0.285410
    2   N2        -3.350973716    -0.068567329    -0.326754585   N.pl3   1  noname    0.029593
    3   C3        -4.254768295    -1.087141106    -0.814958035     C.3   1  noname   -0.271182
    4   C4        -2.008800933    -0.302741767    -0.250866516     C.2   1  noname    0.024106
    5   N5        -1.135377096     0.629666540    -0.080648298     N.2   1  noname   -0.227578
    6   C6         0.198789923     0.276185503     0.154931672     C.2   1  noname    0.156053
    7   C7         0.588885626    -0.820235084     0.954574107     C.2   1  noname   -0.182036
    8   C8         1.930395860    -1.118784578     1.162831397     C.2   1  noname   -0.158492
    9   C9         2.931744924    -0.327008324     0.583148941     C.2   1  noname    0.253700
   10   C10        2.564953685     0.780915623    -0.193962461     C.2   1  noname   -0.179893
   11   C11        1.215078767     1.075554466    -0.391552936     C.2   1  noname   -0.185856
   12   O12        4.225042189    -0.704793335     0.847790062     O.3   1  noname   -0.193508
   13   C13        5.262604954     0.095362542     0.296998759     C.3   1  noname   -0.228182
   14   H14       -4.808598784     1.280507258     0.343439726       H   1  noname    0.118734
   15   H15       -3.122069453     1.908323084     0.270021672       H   1  noname    0.158521
   16   H16       -4.071272209     1.710344816    -1.229399956       H   1  noname    0.116268
   17   H17       -4.569844396    -0.893351093    -1.857441498       H   1  noname    0.121261
   18   H18       -3.763271861    -2.068354044    -0.780812084       H   1  noname    0.126375
   19   H19       -5.160936139    -1.128989550    -0.189287068       H   1  noname    0.127478
   20   H20       -1.744874407    -1.371820117    -0.348281264       H   1  noname    0.076191
   21   H21       -0.176054102    -1.424016715     1.447926326       H   1  noname    0.105847
   22   H22        2.227597314    -1.961356061     1.789852830       H   1  noname    0.103626
   23   H23        3.319348216     1.421538844    -0.649296231       H   1  noname    0.106839
   24   H24        0.925529097     1.939085713    -0.993183262       H   1  noname    0.094615
   25   H25        6.203308700    -0.364823893     0.622139086       H   1  noname    0.137026
   26   H26        5.226507240     0.108420243    -0.806675515       H   1  noname    0.122496
   27   H27        5.216137798     1.133459392     0.670391124       H   1  noname    0.123108


@<TRIPOS>BOND
    1      1      2    1
    2      2      3    1
    3      2      4    1
    4      4      5    2
    5      5      6    1
    6      6      7    2
    7      7      8    1
    8      8      9    2
    9      9     10    1
   10     10     11    2
   11      9     12    1
   12     12     13    1
   13     11      6    1
   14      1     14    1
   15      1     15    1
   16      1     16    1
   17      3     17    1
   18      3     18    1
   19      3     19    1
   20      4     20    1
   21      7     21    1
   22      8     22    1
   23     10     23    1
   24     11     24    1
   25     13     25    1
   26     13     26    1
   27     13     27    1
#
#	File Created by: Spartan'20 Export
#

@<TRIPOS>MOLECULE
M0245
23 23
SMALL
MULLIKEN_CHARGES


@<TRIPOS>ATOM
    1   C1         3.153693807    -1.100763097    -1.158838776     C.3   1  noname   -0.270179
    2   N2         2.367044358    -0.177173028    -0.370758682   N.pl3   1  noname    0.033554
    3   C3         3.073128855     0.665081217     0.575015174     C.3   1  noname   -0.286768
    4   C4         1.009981636    -0.283549382    -0.322032736     C.2   1  noname    0.026136
    5   N5         0.277170941     0.356191657     0.524787532     N.2   1  noname   -0.224945
    6   C6        -1.113930902     0.300684985     0.396324464     C.2   1  noname    0.153104
    7   C7        -1.781874391     0.352393228    -0.845303194     C.2   1  noname   -0.188239
    8   C8        -3.175227551     0.302268916    -0.907320206     C.2   1  noname   -0.112382
    9   C9        -3.934918097     0.210704397     0.260993802     C.2   1  noname   -0.098096
   10   C10       -3.282550266     0.181420969     1.498757213     C.2   1  noname   -0.092942
   11   C11       -1.892853232     0.235363799     1.568274101     C.2   1  noname   -0.150227
   12   H12        3.900669073    -0.559030949    -1.762105064       H   1  noname    0.129022
   13   H13        2.495891222    -1.658509877    -1.838163113       H   1  noname    0.126467
   14   H14        3.690762762    -1.827207424    -0.521604870       H   1  noname    0.123225
   15   H15        2.362009372     1.386452562     0.993033931       H   1  noname    0.160662
   16   H16        3.498736598     0.069641833     1.402403412       H   1  noname    0.118432
   17   H17        3.894435770     1.193311292     0.066395840       H   1  noname    0.120469
   18   H18        0.595621895    -0.974860433    -1.077581381       H   1  noname    0.079735
   19   H19       -1.198853349     0.466497468    -1.762302852       H   1  noname    0.105202
   20   H20       -3.671769885     0.350254240    -1.879331534       H   1  noname    0.100551
   21   H21       -5.024490049     0.176835494     0.209227744       H   1  noname    0.102997
   22   H22       -3.865657356     0.118364945     2.420145814       H   1  noname    0.102549
   23   H23       -1.377021210     0.215627188     2.529983379       H   1  noname    0.097379


@<TRIPOS>BOND
    1      1      2    1
    2      2      3    1
    3      2      4    1
    4      4      5    2
    5      5      6    1
    6      6      7    2
    7      7      8    1
    8      8      9    2
    9      9     10    1
   10     10     11    2
   11     11      6    1
   12      1     12    1
   13      1     13    1
   14      1     14    1
   15      3     15    1
   16      3     16    1
   17      3     17    1
   18      4     18    1
   19      7     19    1
   20      8     20    1
   21      9     21    1
   22     10     22    1
   23     11     23    1
#
#	File Created by: Spartan'20 Export
#

@<TRIPOS>MOLECULE
M0246
23 23
SMALL
MULLIKEN_CHARGES


@<TRIPOS>ATOM
    1   C1        -2.802054733    -0.713813444     1.348583982     C.3   1  noname   -0.292777
    2   N2        -2.386910455    -0.010460320     0.150176438   N.pl3   1  noname    0.044514
    3   C3        -3.429224521     0.495596774    -0.715920101     C.3   1  noname   -0.273454
    4   C4        -1.076717063     0.098735209    -0.187048682     C.2   1  noname    0.040597
    5   N5        -0.119520088    -0.432106486     0.496670261     N.2   1  noname   -0.230608
    6   C6         1.203928264    -0.190436656     0.145414791     C.2   1  noname    0.116840
    7   C7         2.052985622    -1.298905305    -0.063318568     C.2   1  noname   -0.160589
    8   C8         3.398971035    -1.150757373    -0.376141497     C.2   1  noname   -0.096640
    9   C9         3.959233256     0.126114090    -0.476155422     C.2   1  noname   -0.089712
   10   C10        3.156876483     1.244905720    -0.253695966     C.2   1  noname   -0.201060
   11   C11        1.804811183     1.087494083     0.052508648     C.2   1  noname    0.089655
   12   Br12       0.788003449     2.676200201     0.401389037      Br   1  noname   -0.102871
   13   H13       -3.471809593    -0.077308675     1.948945886       H   1  noname    0.122549
   14   H14       -3.341149197    -1.642150583     1.093310925       H   1  noname    0.120279
   15   H15       -1.910377126    -0.964997382     1.933730294       H   1  noname    0.163166
   16   H16       -4.090465548     1.187354486    -0.167605270       H   1  noname    0.128923
   17   H17       -2.983603720     1.039791491    -1.558674680       H   1  noname    0.130371
   18   H18       -4.050866138    -0.323080360    -1.119508706       H   1  noname    0.125371
   19   H19       -0.912583204     0.668434474    -1.115746829       H   1  noname    0.094353
   20   H20        1.602726301    -2.289207783     0.027149195       H   1  noname    0.105123
   21   H21        4.015128442    -2.037062693    -0.538346598       H   1  noname    0.107958
   22   H22        5.015584545     0.256583506    -0.714626088       H   1  noname    0.110164
   23   H23        3.577032803     2.249077027    -0.311091049       H   1  noname    0.122566


@<TRIPOS>BOND
    1      1      2    1
    2      2      3    1
    3      2      4    1
    4      4      5    2
    5      5      6    1
    6      6      7    2
    7      7      8    1
    8      8      9    2
    9      9     10    1
   10     10     11    2
   11     11     12    1
   12     11      6    1
   13      1     13    1
   14      1     14    1
   15      1     15    1
   16      3     16    1
   17      3     17    1
   18      3     18    1
   19      4     19    1
   20      7     20    1
   21      8     21    1
   22      9     22    1
   23     10     23    1
#
#	File Created by: Spartan'20 Export
#

@<TRIPOS>MOLECULE
M0247
12 11
SMALL
MULLIKEN_CHARGES


@<TRIPOS>ATOM
    1   C1        -0.242523276     1.353582468     0.049269026     C.3   1  noname   -0.297304
    2   N2        -0.098678435    -0.082735889    -0.092503796   N.pl3   1  noname    0.017902
    3   C3         0.965706172    -0.732815675     0.641222591     C.3   1  noname   -0.279274
    4   C4        -0.948347248    -0.785971584    -0.900491861     C.2   1  noname    0.099599
    5   O5        -1.870450664    -0.312936614    -1.551945054     O.2   1  noname   -0.312410
    6   H6        -1.077457021     1.675959424    -0.584075209       H   1  noname    0.164262
    7   H7        -0.451089844     1.623192856     1.097620080       H   1  noname    0.122868
    8   H8         0.679388728     1.869325340    -0.265435845       H   1  noname    0.122268
    9   H9         0.934567449    -1.814052498     0.449125272       H   1  noname    0.124147
   10   H10        1.953889385    -0.350735362     0.333517381       H   1  noname    0.127229
   11   H11        0.856960701    -0.568228863     1.726367378       H   1  noname    0.127095
   12   H12       -0.701965945    -1.874583602    -0.902669963       H   1  noname    0.050916


@<TRIPOS>BOND
    1      1      2    1
    2      2      3    1
    3      2      4    1
    4      4      5    2
    5      1      6    1
    6      1      7    1
    7      1      8    1
    8      3      9    1
    9      3     10    1
   10      3     11    1
   11      4     12    1
#
#	File Created by: Spartan'20 Export
#

@<TRIPOS>MOLECULE
M0248
15 14
SMALL
MULLIKEN_CHARGES


@<TRIPOS>ATOM
    1   C1        -0.942553545     1.055590382     0.267586631     C.3   1  noname   -0.289663
    2   N2        -0.542032837    -0.290630100    -0.118972766     N.3   1  noname   -0.086747
    3   C3        -1.073985377    -0.647715824    -1.426101424     C.3   1  noname   -0.281959
    4   C4         0.914182200    -0.453510447    -0.100371739     C.3   1  noname   -0.218542
    5   C5         1.496858939    -0.282717661     1.227279329     C.1   1  noname   -0.002358
    6   C6         1.995070188    -0.136560922     2.321426306     C.1   1  noname   -0.112012
    7   H7        -0.554362511     1.284866769     1.268964416       H   1  noname    0.145300
    8   H8        -2.039601472     1.113913346     0.298465996       H   1  noname    0.121210
    9   H9        -0.573560794     1.835477890    -0.437990391       H   1  noname    0.083154
   10   H10       -2.170091701    -0.566755415    -1.410050460       H   1  noname    0.125751
   11   H11       -0.811690809    -1.688406286    -1.667477657       H   1  noname    0.121707
   12   H12       -0.694669605     0.004654413    -2.246914513       H   1  noname    0.087706
   13   H13        1.417586005     0.254209423    -0.804324118       H   1  noname    0.097688
   14   H14        1.147702428    -1.468962759    -0.462980519       H   1  noname    0.125873
   15   H15        2.431148890    -0.013452810     3.291460909       H   1  noname    0.157337


@<TRIPOS>BOND
    1      1      2    1
    2      2      3    1
    3      2      4    1
    4      4      5    1
    5      5      6    3
    6      1      7    1
    7      1      8    1
    8      1      9    1
    9      3     10    1
   10      3     11    1
   11      3     12    1
   12      4     13    1
   13      4     14    1
   14      6     15    1
#
#	File Created by: Spartan'20 Export
#

@<TRIPOS>MOLECULE
M0249
14 13
SMALL
MULLIKEN_CHARGES


@<TRIPOS>ATOM
    1   C1        -0.288224641     0.957044947    -0.980073651     C.3   1  noname   -0.303778
    2   N2        -0.053250572    -0.330756887    -0.336261027     N.3   1  noname   -0.098568
    3   C3        -1.300647778    -0.978520233     0.047265038     C.3   1  noname   -0.283673
    4   C4         0.828335149    -0.209991622     0.819327171     C.3   1  noname   -0.024089
    5   C5         2.170365904     0.247321144     0.449030264     C.1   1  noname   -0.261603
    6   N6         3.234726282     0.619489349     0.166793316     N.1   1  noname    0.066795
    7   H7        -0.811186378     1.681021865    -0.315438149       H   1  noname    0.092708
    8   H8         0.667392891     1.400805750    -1.292038441       H   1  noname    0.154674
    9   H9        -0.903160981     0.807451434    -1.878000557       H   1  noname    0.128593
   10   H10       -1.926094319    -1.120968337    -0.844747050       H   1  noname    0.133153
   11   H11       -1.887725655    -0.391472730     0.789650875       H   1  noname    0.095338
   12   H12       -1.092431579    -1.968961033     0.477732593       H   1  noname    0.126411
   13   H13        0.435397910     0.486130026     1.599730765       H   1  noname    0.108784
   14   H14        0.926503765    -1.198593674     1.297028854       H   1  noname    0.140255


@<TRIPOS>BOND
    1      1      2    1
    2      2      3    1
    3      2      4    1
    4      4      5    1
    5      5      6    3
    6      1      7    1
    7      1      8    1
    8      1      9    1
    9      3     10    1
   10      3     11    1
   11      3     12    1
   12      4     13    1
   13      4     14    1
#
#	File Created by: Spartan'20 Export
#

@<TRIPOS>MOLECULE
M0250
17 16
SMALL
MULLIKEN_CHARGES


@<TRIPOS>ATOM
    1   C1        -1.542981559    -1.393125892    -0.624421541     C.3   1  noname   -0.277710
    2   N2        -0.758549745    -0.172471141    -0.505492533     N.3   1  noname   -0.106763
    3   C3        -1.319156736     0.710632851     0.508782800     C.3   1  noname   -0.294480
    4   C4         0.649240121    -0.474859754    -0.242386299     C.3   1  noname   -0.056759
    5   C5         1.532738941     0.730147854    -0.377282650     C.2   1  noname   -0.128866
    6   C6         2.396919292     1.148520860     0.550833646     C.2   1  noname   -0.235018
    7   H7        -1.144557667    -2.017765152    -1.437408266       H   1  noname    0.120430
    8   H8        -2.586269271    -1.141358546    -0.863971818       H   1  noname    0.121751
    9   H9        -1.543354944    -2.000615850     0.310232767       H   1  noname    0.084768
   10   H10       -2.351805180     0.974710205     0.238873937       H   1  noname    0.120127
   11   H11       -0.729168232     1.635108538     0.571232877       H   1  noname    0.137671
   12   H12       -1.334296963     0.244833001     1.521651143       H   1  noname    0.081496
   13   H13        0.962489828    -1.228300632    -0.987220423       H   1  noname    0.108891
   14   H14        0.795209601    -0.937265785     0.763158924       H   1  noname    0.062088
   15   H15        1.437805732     1.274372357    -1.323669496       H   1  noname    0.100676
   16   H16        2.498709011     0.630134227     1.508281194       H   1  noname    0.109459
   17   H17        3.037027772     2.017302861     0.388805736       H   1  noname    0.117663


@<TRIPOS>BOND
    1      1      2    1
    2      2      3    1
    3      2      4    1
    4      4      5    1
    5      5      6    2
    6      1      7    1
    7      1      8    1
    8      1      9    1
    9      3     10    1
   10      3     11    1
   11      3     12    1
   12      4     13    1
   13      4     14    1
   14      5     15    1
   15      6     16    1
   16      6     17    1
#
#	File Created by: Spartan'20 Export
#

@<TRIPOS>MOLECULE
M0251
17 16
SMALL
MULLIKEN_CHARGES


@<TRIPOS>ATOM
    1   C1        -1.675067941    -0.988285913     0.708252857     C.3   1  noname   -0.286688
    2   N2        -0.820896894    -0.129902043    -0.104695099     N.3   1  noname   -0.080439
    3   C3        -1.159524923     1.273989864     0.094432589     C.3   1  noname   -0.291960
    4   C4         0.586938886    -0.411419422     0.141046793     C.3   1  noname   -0.164829
    5   C5         1.488346458     0.167989776    -0.967066073     C.3   1  noname   -0.042677
    6   C6         2.882688583    -0.212557650    -0.783159962     C.1   1  noname   -0.285715
    7   N7         3.988335727    -0.531373236    -0.613477383     N.1   1  noname    0.058810
    8   H8        -2.728849014    -0.803104000     0.455789230       H   1  noname    0.126267
    9   H9        -1.549729132    -0.818801196     1.801392733       H   1  noname    0.095917
   10   H10       -1.453494127    -2.044155132     0.497189833       H   1  noname    0.127749
   11   H11       -2.224216441     1.426400461    -0.130468655       H   1  noname    0.128473
   12   H12       -0.972612273     1.618093403     1.136834536       H   1  noname    0.096888
   13   H13       -0.585572962     1.917062824    -0.586843390       H   1  noname    0.121945
   14   H14        0.720000166    -1.503281237     0.155608047       H   1  noname    0.123855
   15   H15        0.933906255    -0.033706952     1.130149762       H   1  noname    0.091037
   16   H16        1.136299826    -0.194219268    -1.945990348       H   1  noname    0.136886
   17   H17        1.433447808     1.267269719    -0.988995469       H   1  noname    0.129238


@<TRIPOS>BOND
    1      1      2    1
    2      2      3    1
    3      2      4    1
    4      4      5    1
    5      5      6    1
    6      6      7    3
    7      1      8    1
    8      1      9    1
    9      1     10    1
   10      3     11    1
   11      3     12    1
   12      3     13    1
   13      4     14    1
   14      4     15    1
   15      5     16    1
   16      5     17    1
#
#	File Created by: Spartan'20 Export
#

@<TRIPOS>MOLECULE
M0252
19 18
SMALL
MULLIKEN_CHARGES


@<TRIPOS>ATOM
    1   C1        -2.173304386     0.706146097     0.585909116     C.3   1  noname   -0.279118
    2   N2        -1.065444309     0.390780924    -0.305957418     N.3   1  noname   -0.085562
    3   C3        -1.421864406    -0.709422620    -1.193075261     C.3   1  noname   -0.289291
    4   C4         0.151787077     0.117330556     0.458412047     C.3   1  noname   -0.153687
    5   C5         1.411455870     0.104424628    -0.406114055     C.3   1  noname   -0.145210
    6   C6         2.699952566     0.074599603     0.395246696     C.3   1  noname   -0.135183
    7   Cl7        2.908340338    -1.472024577     1.321111129      Cl   1  noname   -0.160749
    8   H8        -2.450816349    -0.141346882     1.254242947       H   1  noname    0.088387
    9   H9        -3.060557955     0.974139024    -0.006160346       H   1  noname    0.121438
   10   H10       -1.910532445     1.566877223     1.218155125       H   1  noname    0.120270
   11   H11       -2.326715490    -0.447235397    -1.760050633       H   1  noname    0.121855
   12   H12       -1.621936606    -1.658503596    -0.643814375       H   1  noname    0.089634
   13   H13       -0.618076145    -0.898401039    -1.916838085       H   1  noname    0.123830
   14   H14        0.075234288    -0.837925096     1.025876400       H   1  noname    0.088846
   15   H15        0.253563623     0.920064015     1.208447936       H   1  noname    0.090423
   16   H16        1.409232405    -0.745357699    -1.105742880       H   1  noname    0.103898
   17   H17        1.423135967     1.024746243    -1.016470528       H   1  noname    0.102208
   18   H18        3.579330401     0.151931909    -0.255421418       H   1  noname    0.142947
   19   H19        2.737215556     0.879176683     1.142243604       H   1  noname    0.128935


@<TRIPOS>BOND
    1      1      2    1
    2      2      3    1
    3      2      4    1
    4      4      5    1
    5      5      6    1
    6      6      7    1
    7      1      8    1
    8      1      9    1
    9      1     10    1
   10      3     11    1
   11      3     12    1
   12      3     13    1
   13      4     14    1
   14      4     15    1
   15      5     16    1
   16      5     17    1
   17      6     18    1
   18      6     19    1
#
#	File Created by: Spartan'20 Export
#

@<TRIPOS>MOLECULE
M0253
23 23
SMALL
MULLIKEN_CHARGES


@<TRIPOS>ATOM
    1   C1         1.742201648    -1.187575713     0.680691751     C.3   1  noname   -0.297435
    2   N2         1.618706130    -0.416630176    -0.549773939     N.3   1  noname   -0.107242
    3   C3         2.923770985    -0.101778138    -1.109143862     C.3   1  noname   -0.279146
    4   C4         0.817729518     0.790480021    -0.357015387     C.3   1  noname   -0.087443
    5   C5        -0.633609988     0.503036164    -0.041282274     C.2   1  noname    0.106217
    6   C6        -1.336921109    -0.475289225    -0.758026056     C.2   1  noname   -0.150521
    7   C7        -2.684903583    -0.718569732    -0.495272080     C.2   1  noname   -0.098292
    8   C8        -3.355120173     0.014836719     0.488217945     C.2   1  noname   -0.085616
    9   C9        -2.662942804     0.989234056     1.208987614     C.2   1  noname   -0.116268
   10   C10       -1.310921195     1.226086472     0.946816671     C.2   1  noname   -0.151784
   11   H11        2.287412572    -2.120806414     0.479186206       H   1  noname    0.119175
   12   H12        2.285667827    -0.634268564     1.480751060       H   1  noname    0.085952
   13   H13        0.745634013    -1.448430807     1.062157552       H   1  noname    0.145700
   14   H14        2.802248256     0.427425070    -2.065639532       H   1  noname    0.120585
   15   H15        3.544603893     0.536644297    -0.438905162       H   1  noname    0.084484
   16   H16        3.480660953    -1.030746630    -1.301039607       H   1  noname    0.122496
   17   H17        1.242030697     1.446082703     0.440053938       H   1  noname    0.069501
   18   H18        0.870091819     1.371086857    -1.294767045       H   1  noname    0.109151
   19   H19       -0.804379331    -1.056305502    -1.514024724       H   1  noname    0.113796
   20   H20       -3.216991233    -1.485906044    -1.061725387       H   1  noname    0.107914
   21   H21       -4.410223224    -0.175605144     0.693303504       H   1  noname    0.108166
   22   H22       -3.173526535     1.563307096     1.984911775       H   1  noname    0.107517
   23   H23       -0.771219136     1.983692636     1.521537037       H   1  noname    0.102303


@<TRIPOS>BOND
    1      1      2    1
    2      2      3    1
    3      2      4    1
    4      4      5    1
    5      5      6    2
    6      6      7    1
    7      7      8    2
    8      8      9    1
    9      9     10    2
   10     10      5    1
   11      1     11    1
   12      1     12    1
   13      1     13    1
   14      3     14    1
   15      3     15    1
   16      3     16    1
   17      4     17    1
   18      4     18    1
   19      6     19    1
   20      7     20    1
   21      8     21    1
   22      9     22    1
   23     10     23    1
#
#	File Created by: Spartan'20 Export
#

@<TRIPOS>MOLECULE
M0254
29 28
SMALL
MULLIKEN_CHARGES


@<TRIPOS>ATOM
    1   C1        -2.068683999     1.653681894     0.121821237     C.3   1  noname   -0.290094
    2   N2        -0.645131624     1.315761066     0.174070191     N.3   1  noname   -0.099597
    3   C3         0.207150485     2.501602887     0.162585532     C.3   1  noname   -0.297032
    4   P4        -0.135631611    -0.025606252    -0.723366109       P   1  noname    0.579826
    5   O5        -0.304784130     0.003154450    -2.204224262     O.2   1  noname   -0.456383
    6   N6         1.490430275    -0.211730934    -0.339615181   N.pl3   1  noname   -0.097875
    7   C7         1.982278620    -0.366690010     1.016697264     C.3   1  noname   -0.295942
    8   C8         2.517303604     0.058928710    -1.334625092     C.3   1  noname   -0.291154
    9   N9        -1.058155993    -1.243566768    -0.023856459   N.pl3   1  noname   -0.079017
   10   C10       -1.231909167    -2.470305737    -0.794609560     C.3   1  noname   -0.311491
   11   C11       -1.335181437    -1.386344334     1.396304844     C.3   1  noname   -0.333320
   12   H12       -2.344959786     2.228190710     1.021165090       H   1  noname    0.118153
   13   H13       -2.670495917     0.737571076     0.091902727       H   1  noname    0.142821
   14   H14       -2.317030231     2.259109155    -0.769351757       H   1  noname    0.121726
   15   H15        0.012366404     3.106231652     1.063491829       H   1  noname    0.119049
   16   H16        1.264337170     2.212205677     0.163655965       H   1  noname    0.128606
   17   H17        0.024838902     3.138145785    -0.723932886       H   1  noname    0.121827
   18   H18        2.697494423    -1.206023398     1.073358535       H   1  noname    0.124305
   19   H19        1.163085447    -0.575338011     1.713587906       H   1  noname    0.135592
   20   H20        2.505197125     0.542350898     1.373953601       H   1  noname    0.104668
   21   H21        3.239091394    -0.775463825    -1.380215456       H   1  noname    0.112230
   22   H22        3.082138109     0.982027306    -1.095829841       H   1  noname    0.095437
   23   H23        2.045972525     0.174105607    -2.316967644       H   1  noname    0.166907
   24   H24       -1.048909532    -2.261052982    -1.854998146       H   1  noname    0.164882
   25   H25       -0.543243723    -3.268376457    -0.457858343       H   1  noname    0.105129
   26   H26       -2.265172446    -2.839943349    -0.681950022       H   1  noname    0.114094
   27   H27       -2.385303600    -1.694480482     1.545573734       H   1  noname    0.124508
   28   H28       -0.695542984    -2.156433499     1.869734288       H   1  noname    0.120527
   29   H29       -1.181548302    -0.431710834     1.913498016       H   1  noname    0.150989


@<TRIPOS>BOND
    1      1      2    1
    2      2      3    1
    3      2      4    1
    4      4      5    2
    5      4      6    1
    6      6      7    1
    7      6      8    1
    8      4      9    1
    9      9     10    1
   10      9     11    1
   11      1     12    1
   12      1     13    1
   13      1     14    1
   14      3     15    1
   15      3     16    1
   16      3     17    1
   17      7     18    1
   18      7     19    1
   19      7     20    1
   20      8     21    1
   21      8     22    1
   22      8     23    1
   23     10     24    1
   24     10     25    1
   25     10     26    1
   26     11     27    1
   27     11     28    1
   28     11     29    1
#
#	File Created by: Spartan'20 Export
#

@<TRIPOS>MOLECULE
M0255
16 15
SMALL
MULLIKEN_CHARGES


@<TRIPOS>ATOM
    1   C1        -0.559901764     1.232530526    -1.088080488     C.3   1  noname   -0.322909
    2   N2        -0.769157293     0.000099396    -0.332196878   N.pl3   1  noname   -0.065192
    3   C3        -0.559618926    -1.232277847    -1.088083548     C.3   1  noname   -0.322975
    4   S4        -0.333270364     0.000083048     1.278792924       S   1  noname    0.767234
    5   O5        -0.771781891     1.267337560     1.832009147     O.2   1  noname   -0.367285
    6   O6        -0.772238991    -1.266948811     1.832155181     O.2   1  noname   -0.367260
    7   C7         1.464527151    -0.000293258     1.314035164     C.3   1  noname   -0.377845
    8   H8         0.467816146     1.312512121    -1.493135864       H   1  noname    0.108808
    9   H9        -0.769998877     2.095933998    -0.448013211       H   1  noname    0.172222
   10   H10       -1.262271340     1.244742008    -1.934437889       H   1  noname    0.133120
   11   H11       -0.768573571    -2.095733079    -0.447696961       H   1  noname    0.172209
   12   H12        0.467851441    -1.311619869    -1.493882277       H   1  noname    0.108822
   13   H13       -1.262624890    -1.245259940    -1.933907493       H   1  noname    0.133146
   14   H14        1.832685278    -0.906285165     0.816801615       H   1  noname    0.143201
   15   H15        1.763466963    -0.000051446     2.369381486       H   1  noname    0.157397
   16   H16        1.833090927     0.905230757     0.816259093       H   1  noname    0.143182


@<TRIPOS>BOND
    1      1      2    1
    2      2      3    1
    3      2      4    1
    4      4      5    2
    5      4      6    2
    6      4      7    1
    7      1      8    1
    8      1      9    1
    9      1     10    1
   10      3     11    1
   11      3     12    1
   12      3     13    1
   13      7     14    1
   14      7     15    1
   15      7     16    1
#
#	File Created by: Spartan'20 Export
#

@<TRIPOS>MOLECULE
M0256
23 23
SMALL
MULLIKEN_CHARGES


@<TRIPOS>ATOM
    1   C1        -1.824245125     1.285551265    -0.475869416     C.3   1  noname   -0.308296
    2   N2        -1.795352682    -0.077612837     0.059455717     N.3   1  noname   -0.091855
    3   C3        -3.126729855    -0.660014381     0.261530171     C.3   1  noname   -0.318272
    4   S4        -0.700841916    -1.095210285    -0.727078986       S   1  noname    0.758164
    5   O5        -0.747165070    -0.919202572    -2.173069836     O.2   1  noname   -0.362567
    6   O6        -0.886776799    -2.415393812    -0.147822913     O.2   1  noname   -0.374809
    7   C7         0.851925306    -0.422225726    -0.148485845     C.2   1  noname    0.048459
    8   C8         1.175503846    -0.528127863     1.207713336     C.2   1  noname   -0.164465
    9   C9         2.407840129    -0.049998801     1.647650010     C.2   1  noname   -0.088985
   10   C10        3.302372376     0.525831725     0.737894489     C.2   1  noname   -0.078822
   11   C11        2.968346197     0.623426634    -0.614294864     C.2   1  noname   -0.088448
   12   C12        1.735881121     0.146882828    -1.066600543     C.2   1  noname   -0.116454
   13   H13       -2.366975764     1.921110288     0.238274934       H   1  noname    0.128088
   14   H14       -2.318545894     1.342825592    -1.461647932       H   1  noname    0.132973
   15   H15       -0.802000902     1.675274508    -0.570291319       H   1  noname    0.147716
   16   H16       -3.023747537    -1.689311365     0.621265320       H   1  noname    0.165759
   17   H17       -3.644748002    -0.064093014     1.026842682       H   1  noname    0.126772
   18   H18       -3.732615691    -0.654223102    -0.662588237       H   1  noname    0.122366
   19   H19        0.465722167    -0.984901207     1.898067920       H   1  noname    0.133515
   20   H20        2.674819577    -0.129008899     2.702618256       H   1  noname    0.121705
   21   H21        4.267390830     0.897653732     1.086872726       H   1  noname    0.120381
   22   H22        3.668664374     1.069119260    -1.322605952       H   1  noname    0.122081
   23   H23        1.451279312     0.201648033    -2.117829721       H   1  noname    0.156028


@<TRIPOS>BOND
    1      1      2    1
    2      2      3    1
    3      2      4    1
    4      4      5    2
    5      4      6    2
    6      4      7    1
    7      7      8    2
    8      8      9    1
    9      9     10    2
   10     10     11    1
   11     11     12    2
   12     12      7    1
   13      1     13    1
   14      1     14    1
   15      1     15    1
   16      3     16    1
   17      3     17    1
   18      3     18    1
   19      8     19    1
   20      9     20    1
   21     10     21    1
   22     11     22    1
   23     12     23    1
#
#	File Created by: Spartan'20 Export
#

@<TRIPOS>MOLECULE
M0257
22 22
SMALL
MULLIKEN_CHARGES


@<TRIPOS>ATOM
    1   C1        -1.863260446     0.130757929     1.046014810     C.3   1  noname   -0.309581
    2   N2        -1.625664023     0.821882279    -0.223950945     N.3   1  noname   -0.092963
    3   C3        -2.826582914     1.486343749    -0.742043718     C.3   1  noname   -0.305724
    4   S4        -0.848651503    -0.098565046    -1.450087405       S   1  noname    0.450310
    5   O5        -1.414769865    -1.475716750    -1.597199673     O.2   1  noname   -0.440649
    6   C6         0.724710625    -0.307045050    -0.557809566     C.2   1  noname    0.062558
    7   C7         1.485272401     0.805831832    -0.189807495     C.2   1  noname   -0.148824
    8   C8         2.726003786     0.608789915     0.416679201     C.2   1  noname   -0.092105
    9   C9         3.201259115    -0.688528848     0.639897314     C.2   1  noname   -0.084616
   10   C10        2.435964662    -1.791649278     0.256487064     C.2   1  noname   -0.090366
   11   C11        1.192618452    -1.603798165    -0.353730756     C.2   1  noname   -0.143131
   12   H12       -2.611816464    -0.675931199     0.949656799       H   1  noname    0.133814
   13   H13       -0.925110661    -0.300060625     1.418416587       H   1  noname    0.150176
   14   H14       -2.225998603     0.865913381     1.779042779       H   1  noname    0.125761
   15   H15       -3.094547369     2.309810837    -0.063156444       H   1  noname    0.128187
   16   H16       -3.692813359     0.803998823    -0.824830630       H   1  noname    0.123710
   17   H17       -2.612477142     1.909768267    -1.732678973       H   1  noname    0.134024
   18   H18        1.099787729     1.812578734    -0.361792694       H   1  noname    0.114711
   19   H19        3.325892570     1.469985541     0.716933226       H   1  noname    0.116399
   20   H20        4.174235769    -0.837310105     1.111776400       H   1  noname    0.116345
   21   H21        2.807094995    -2.803552532     0.429677490       H   1  noname    0.117420
   22   H22        0.568852245    -2.443503688    -0.667493371       H   1  noname    0.151205


@<TRIPOS>BOND
    1      1      2    1
    2      2      3    1
    3      2      4    1
    4      4      5    2
    5      4      6    1
    6      6      7    2
    7      7      8    1
    8      8      9    2
    9      9     10    1
   10     10     11    2
   11     11      6    1
   12      1     12    1
   13      1     13    1
   14      1     14    1
   15      3     15    1
   16      3     16    1
   17      3     17    1
   18      7     18    1
   19      8     19    1
   20      9     20    1
   21     10     21    1
   22     11     22    1
#
#	File Created by: Spartan'20 Export
#

@<TRIPOS>MOLECULE
M0258
21 21
SMALL
MULLIKEN_CHARGES


@<TRIPOS>ATOM
    1   C1         0.029045601    -1.254661077    -2.320349239     C.3   1  noname   -0.325137
    2   N2         0.021706667     0.000362533    -1.590525506   N.pl3   1  noname    0.035342
    3   C3         0.027764468     1.253796332    -2.322724687     C.3   1  noname   -0.324875
    4   C4         0.006316667     0.001641093    -0.215973893     C.2   1  noname    0.193465
    5   C5        -0.002158471     1.215462375     0.519110784     C.2   1  noname   -0.173806
    6   C6        -0.022406754     1.210670830     1.904431954     C.2   1  noname   -0.193656
    7   C7        -0.034034622     0.000943888     2.625089357     C.2   1  noname    0.260607
    8   C8        -0.022795560    -1.208296359     1.903791624     C.2   1  noname   -0.193570
    9   C9        -0.002533569    -1.212216161     0.518792490     C.2   1  noname   -0.173575
   10   C10       -0.057055889    -0.001643510     4.048552175     C.1   1  noname   -0.313425
   11   N11       -0.076707563    -0.006277976     5.216205781     N.1   1  noname    0.060638
   12   H12        0.925835540    -1.858989189    -2.096341309       H   1  noname    0.140580
   13   H13       -0.859957129    -1.868670288    -2.092556057       H   1  noname    0.140538
   14   H14        0.025021186    -1.045884752    -3.395532306       H   1  noname    0.128630
   15   H15        0.925121490     1.858185606    -2.101445846       H   1  noname    0.140493
   16   H16        0.021632149     1.042789146    -3.397466641       H   1  noname    0.128586
   17   H17       -0.860990915     1.867731432    -2.094222641       H   1  noname    0.140491
   18   H18        0.008280586     2.171455835    -0.001016321       H   1  noname    0.117399
   19   H19       -0.029319824     2.156525111     2.447442453       H   1  noname    0.126864
   20   H20       -0.030123517    -2.154660710     2.446101635       H   1  noname    0.126920
   21   H21        0.007359458    -2.168264158    -0.001363807       H   1  noname    0.117273


@<TRIPOS>BOND
    1      1      2    1
    2      2      3    1
    3      2      4    1
    4      4      5    2
    5      5      6    1
    6      6      7    2
    7      7      8    1
    8      8      9    2
    9      7     10    1
   10     10     11    3
   11      9      4    1
   12      1     12    1
   13      1     13    1
   14      1     14    1
   15      3     15    1
   16      3     16    1
   17      3     17    1
   18      5     18    1
   19      6     19    1
   20      8     20    1
   21      9     21    1
#
#	File Created by: Spartan'20 Export
#

@<TRIPOS>MOLECULE
M0259
22 22
SMALL
MULLIKEN_CHARGES


@<TRIPOS>ATOM
    1   C1        -2.391601544     1.306850727    -0.697218217     C.3   1  noname   -0.322821
    2   N2        -1.770810138     0.124980032    -0.125451598   N.pl3   1  noname    0.038842
    3   C3        -2.610287918    -0.964246039     0.340619092     C.3   1  noname   -0.322131
    4   C4        -0.404283881     0.033915814    -0.027017254     C.2   1  noname    0.206705
    5   C5         0.440506037     1.085136591    -0.482872906     C.2   1  noname   -0.149686
    6   C6         1.815680067     0.982742393    -0.384313573     C.2   1  noname   -0.198815
    7   C7         2.424682380    -0.158368058     0.170236807     C.2   1  noname    0.154497
    8   C8         1.595169916    -1.196749590     0.623503121     C.2   1  noname   -0.156851
    9   C9         0.214606949    -1.115014663     0.532649247     C.2   1  noname   -0.193760
   10   C10        3.881587847    -0.273603845     0.274121794     C.2   1  noname    0.036352
   11   O11        4.691508757     0.567573876    -0.094083914     O.2   1  noname   -0.256295
   12   H12       -2.075275919     1.473669850    -1.741247772       H   1  noname    0.141220
   13   H13       -3.479177719     1.177133031    -0.691889941       H   1  noname    0.127002
   14   H14       -2.154915703     2.216333473    -0.118636802       H   1  noname    0.141497
   15   H15       -2.405469194    -1.901544432    -0.205407371       H   1  noname    0.140397
   16   H16       -3.661462634    -0.701913277     0.180043378       H   1  noname    0.127644
   17   H17       -2.469095278    -1.159595551     1.417797509       H   1  noname    0.140193
   18   H18        0.008168953     1.983759646    -0.920713654       H   1  noname    0.113739
   19   H19        2.458691862     1.790789706    -0.739271139       H   1  noname    0.129519
   20   H20        2.051385557    -2.091881474     1.056614492       H   1  noname    0.109014
   21   H21       -0.390787357    -1.944155409     0.895171182       H   1  noname    0.111733
   22   H22        4.231178960    -1.235812801     0.737367516       H   1  noname    0.040470


@<TRIPOS>BOND
    1      1      2    1
    2      2      3    1
    3      2      4    1
    4      4      5    2
    5      5      6    1
    6      6      7    2
    7      7      8    1
    8      8      9    2
    9      7     10    1
   10     10     11    2
   11      9      4    1
   12      1     12    1
   13      1     13    1
   14      1     14    1
   15      3     15    1
   16      3     16    1
   17      3     17    1
   18      5     18    1
   19      6     19    1
   20      8     20    1
   21      9     21    1
   22     10     22    1
#
#	File Created by: Spartan'20 Export
#

@<TRIPOS>MOLECULE
M0260
20 20
SMALL
MULLIKEN_CHARGES


@<TRIPOS>ATOM
    1   C1         0.030411607     1.240657466    -2.046970974     C.3   1  noname   -0.305420
    2   N2        -0.170006346     0.000299534    -1.323004145   N.pl3   1  noname    0.001514
    3   C3         0.029250915    -1.241008307    -2.045926136     C.3   1  noname   -0.305735
    4   C4        -0.094570677     0.000958890     0.063522820     C.2   1  noname    0.186813
    5   C5        -0.057595566    -1.209030041     0.797055789     C.2   1  noname   -0.174007
    6   C6        -0.019281970    -1.199901799     2.189401724     C.2   1  noname   -0.131878
    7   C7        -0.004875874    -0.000242676     2.904010547     C.2   1  noname   -0.107132
    8   C8        -0.020586315     1.199995105     2.190222030     C.2   1  noname   -0.131673
    9   C9        -0.058822996     1.210627241     0.797730714     C.2   1  noname   -0.174173
   10   H10        1.037196635     1.675146077    -1.889242136       H   1  noname    0.123474
   11   H11       -0.715492225     1.995878732    -1.754231175       H   1  noname    0.135083
   12   H12       -0.097464295     1.052709942    -3.119661876       H   1  noname    0.121192
   13   H13       -0.718011739    -1.995211302    -1.753668197       H   1  noname    0.135178
   14   H14       -0.097116549    -1.053680484    -3.118910125       H   1  noname    0.121245
   15   H15        1.035064230    -1.677418754    -1.886964675       H   1  noname    0.123524
   16   H16       -0.057124292    -2.166373401     0.278165369       H   1  noname    0.100433
   17   H17        0.005992452    -2.153410947     2.721464864       H   1  noname    0.101153
   18   H18        0.028934529    -0.000981571     3.994009696       H   1  noname    0.101594
   19   H19        0.003532916     2.152749638     2.723504030       H   1  noname    0.101158
   20   H20       -0.059434439     2.168236658     0.279491855       H   1  noname    0.100420


@<TRIPOS>BOND
    1      1      2    1
    2      2      3    1
    3      2      4    1
    4      4      5    2
    5      5      6    1
    6      6      7    2
    7      7      8    1
    8      8      9    2
    9      9      4    1
   10      1     10    1
   11      1     11    1
   12      1     12    1
   13      3     13    1
   14      3     14    1
   15      3     15    1
   16      5     16    1
   17      6     17    1
   18      7     18    1
   19      8     19    1
   20      9     20    1
#
#	File Created by: Spartan'20 Export
#

@<TRIPOS>MOLECULE
M0261
19 19
SMALL
MULLIKEN_CHARGES


@<TRIPOS>ATOM
    1   C1         0.033070979    -1.246310603    -1.848348198     C.3   1  noname   -0.308236
    2   N2        -0.122343800     0.000236629    -1.120660158   N.pl3   1  noname    0.021503
    3   C3         0.033372917     1.245995000    -1.849318406     C.3   1  noname   -0.307925
    4   C4        -0.072719008     0.000887129     0.254599703     C.2   1  noname    0.186986
    5   C5        -0.047258899     1.199525495     1.006133718     C.2   1  noname   -0.170736
    6   C6        -0.027933231     1.134122216     2.395331426     C.2   1  noname   -0.079590
    7   N7        -0.020944943    -0.000325699     3.114354731     N.2   1  noname   -0.150945
    8   C8        -0.027212408    -1.134119030     2.394470498     C.2   1  noname   -0.079793
    9   C9        -0.046591263    -1.198163822     1.005346304     C.2   1  noname   -0.170445
   10   H10       -0.724887849    -1.982079918    -1.538829198       H   1  noname    0.139669
   11   H11       -0.108905140    -1.055148702    -2.918353642       H   1  noname    0.125002
   12   H12        1.031643819    -1.701542600    -1.708017882       H   1  noname    0.131955
   13   H13        1.033001983     1.699408833    -1.711081138       H   1  noname    0.131890
   14   H14       -0.111150092     1.054447871    -2.918910981       H   1  noname    0.124965
   15   H15       -0.723080516     1.982533299    -1.538348376       H   1  noname    0.139565
   16   H16       -0.038234096     2.174586750     0.521864173       H   1  noname    0.096888
   17   H17       -0.012083796     2.065852102     2.970754933       H   1  noname    0.099874
   18   H18       -0.010698634    -2.066853372     2.968558838       H   1  noname    0.099824
   19   H19       -0.037046022    -2.173051577     0.520453656       H   1  noname    0.096935


@<TRIPOS>BOND
    1      1      2    1
    2      2      3    1
    3      2      4    1
    4      4      5    2
    5      5      6    1
    6      6      7    2
    7      7      8    1
    8      8      9    2
    9      9      4    1
   10      1     10    1
   11      1     11    1
   12      1     12    1
   13      3     13    1
   14      3     14    1
   15      3     15    1
   16      5     16    1
   17      6     17    1
   18      8     18    1
   19      9     19    1
#
#	File Created by: Spartan'20 Export
#

@<TRIPOS>MOLECULE
M0262
18 18
SMALL
MULLIKEN_CHARGES


@<TRIPOS>ATOM
    1   C1         0.103399098    -1.227798702    -1.957965911     C.3   1  noname   -0.281296
    2   N2         0.000957209     0.000723094    -1.193769720   N.pl3   1  noname    0.013102
    3   C3         0.102932840     1.227522001    -1.960216727     C.3   1  noname   -0.281480
    4   C4        -0.036128071     0.001768192     0.174766038     C.2   1  noname    0.266693
    5   N5        -0.060519786     1.208074849     0.797225539     N.2   1  noname   -0.230196
    6   C6        -0.117648262     1.181033190     2.128345600     C.2   1  noname   -0.058696
    7   C7        -0.147208655    -0.000281264     2.871311600     C.2   1  noname   -0.109913
    8   C8        -0.112148662    -1.180553658     2.127053215     C.2   1  noname   -0.058818
    9   N9        -0.054628736    -1.205368463     0.796203648     N.2   1  noname   -0.229973
   10   H10       -0.637934773    -1.219769283    -2.773756403       H   1  noname    0.116062
   11   H11       -0.078058593    -2.085341567    -1.304276089       H   1  noname    0.159569
   12   H12        1.106278840    -1.326990362    -2.411707637       H   1  noname    0.113646
   13   H13       -0.060176831     2.086199636    -1.303360026       H   1  noname    0.159651
   14   H14       -0.650945220     1.227425813    -2.764684529       H   1  noname    0.116227
   15   H15        1.099639442     1.315431259    -2.429270907       H   1  noname    0.113414
   16   H16       -0.138514325     2.157888748     2.623937226       H   1  noname    0.108578
   17   H17       -0.190882350    -0.001431907     3.959154639       H   1  noname    0.110786
   18   H18       -0.128413166    -2.158531576     2.621010443       H   1  noname    0.108533


@<TRIPOS>BOND
    1      1      2    1
    2      2      3    1
    3      2      4    1
    4      4      5    2
    5      5      6    1
    6      6      7    2
    7      7      8    1
    8      8      9    2
    9      9      4    1
   10      1     10    1
   11      1     11    1
   12      1     12    1
   13      3     13    1
   14      3     14    1
   15      3     15    1
   16      6     16    1
   17      7     17    1
   18      8     18    1
#
#	File Created by: Spartan'20 Export
#

@<TRIPOS>MOLECULE
M0263
19 19
SMALL
MULLIKEN_CHARGES


@<TRIPOS>ATOM
    1   C1         1.551378234     0.000587530    -1.862505395     C.3   1  noname   -0.318748
    2   N2         0.156209233    -0.000051013    -1.432928083   N.pl3   1  noname    0.089080
    3   C3        -0.801880340    -0.000730576    -2.434379119     C.2   1  noname    0.107437
    4   O4        -2.015526891    -0.001436386    -2.311905070     O.2   1  noname   -0.290622
    5   C5        -0.119797412    -0.000059494    -0.038040966     C.2   1  noname    0.111657
    6   C6        -1.435143039     0.000427649     0.468723541     C.2   1  noname   -0.149024
    7   C7        -1.652983272     0.000482670     1.844942577     C.2   1  noname   -0.109608
    8   C8        -0.589434425     0.000050746     2.749528962     C.2   1  noname   -0.086996
    9   C9         0.712688547    -0.000446824     2.252386407     C.2   1  noname   -0.139508
   10   C10        0.951167545    -0.000496968     0.878009683     C.2   1  noname   -0.153041
   11   H11        2.078869076     0.895696837    -1.500640138       H   1  noname    0.144670
   12   H12        1.580542341     0.000903293    -2.958452075       H   1  noname    0.128230
   13   H13        2.079575555    -0.894321520    -1.501177001       H   1  noname    0.144627
   14   H14       -0.314140403    -0.000599258    -3.436316575       H   1  noname    0.060828
   15   H15       -2.273559502     0.000759053    -0.220606558       H   1  noname    0.159086
   16   H16       -2.681695214     0.000879253     2.210441592       H   1  noname    0.113236
   17   H17       -0.772746239     0.000104353     3.824940045       H   1  noname    0.111269
   18   H18        1.563664208    -0.000806076     2.936067593       H   1  noname    0.110225
   19   H19        1.982811997    -0.000943270     0.531910580       H   1  noname    0.113798


@<TRIPOS>BOND
    1      1      2    1
    2      2      3    1
    3      3      4    2
    4      2      5    1
    5      5      6    2
    6      6      7    1
    7      7      8    2
    8      8      9    1
    9      9     10    2
   10     10      5    1
   11      1     11    1
   12      1     12    1
   13      1     13    1
   14      3     14    1
   15      6     15    1
   16      7     16    1
   17      8     17    1
   18      9     18    1
   19     10     19    1
#
#	File Created by: Spartan'20 Export
#

@<TRIPOS>MOLECULE
M0264
15 15
SMALL
MULLIKEN_CHARGES


@<TRIPOS>ATOM
    1   C1        -0.000440336     0.010124619    -2.154911998     C.3   1  noname   -0.299722
    2   N2         0.001094150     0.005858454    -0.704164576    N.am   1  noname    0.043694
    3   C3        -1.170041085     0.000547858     0.058793644     C.2   1  noname    0.119856
    4   O4        -2.294855192    -0.002106791    -0.404665385     O.2   1  noname   -0.263080
    5   C5        -0.766225771    -0.006140731     1.527379799     C.3   1  noname   -0.141838
    6   C6         0.766402480    -0.006908084     1.527964946     C.3   1  noname   -0.141944
    7   C7         1.172121728    -0.000533249     0.059421084     C.2   1  noname    0.119684
    8   O8         2.297232049    -0.004180376    -0.403072034     O.2   1  noname   -0.262754
    9   H9        -0.005061238     1.039547789    -2.541244006       H   1  noname    0.138216
   10   H10       -0.904241902    -0.503507400    -2.503713151       H   1  noname    0.156773
   11   H11        0.905662740    -0.497484866    -2.506104920       H   1  noname    0.156842
   12   H12       -1.208562889     0.874282718     2.014384909       H   1  noname    0.125393
   13   H13       -1.208806288    -0.890615660     2.006552815       H   1  noname    0.124162
   14   H14        1.207070393    -0.891978635     2.007693659       H   1  noname    0.124136
   15   H15        1.208651159     0.873094354     2.015685212       H   1  noname    0.125368


@<TRIPOS>BOND
    1      1      2    1
    2      2      3    am
    3      3      4    2
    4      3      5    1
    5      5      6    1
    6      6      7    1
    7      7      8    2
    8      7      2    am
    9      1      9    1
   10      1     10    1
   11      1     11    1
   12      5     12    1
   13      5     13    1
   14      6     14    1
   15      6     15    1
#
#	File Created by: Spartan'20 Export
#

@<TRIPOS>MOLECULE
M0265
20 20
SMALL
MULLIKEN_CHARGES


@<TRIPOS>ATOM
    1   C1        -1.155703373    -0.000001206    -1.765400394     C.3   1  noname   -0.317726
    2   N2         0.222482725     0.000026296    -1.292256556     N.3   1  noname   -0.053631
    3   C3         0.591440326    -1.201287406    -0.545103683     C.3   1  noname   -0.160613
    4   C4         0.024901413    -1.255886246     0.891323705     C.3   1  noname   -0.205672
    5   C5         0.442319846     0.000047468     1.640804329     C.3   1  noname    0.044164
    6   C6         0.024906928     1.255989642     0.891297789     C.3   1  noname   -0.205580
    7   C7         0.591474608     1.201340893    -0.545124029     C.3   1  noname   -0.160634
    8   Cl8       -0.256746987    -0.000056114     3.327277671      Cl   1  noname   -0.168565
    9   H9        -1.321772281    -0.888451328    -2.392509922       H   1  noname    0.124733
   10   H10       -1.930856864    -0.000327823    -0.969999453       H   1  noname    0.101553
   11   H11       -1.321980168     0.888686940    -2.392101062       H   1  noname    0.124726
   12   H12        0.265741128    -2.086691608    -1.111950108       H   1  noname    0.110785
   13   H13        1.694879714    -1.239767081    -0.495082758       H   1  noname    0.102968
   14   H14       -1.074842206    -1.318619776     0.873039421       H   1  noname    0.109742
   15   H15        0.392678393    -2.153584474     1.410381782       H   1  noname    0.108891
   16   H16        1.532474579    -0.000012660     1.799255708       H   1  noname    0.104187
   17   H17        0.392647738     2.153703703     1.410341385       H   1  noname    0.108888
   18   H18       -1.074844085     1.318592230     0.872955500       H   1  noname    0.109726
   19   H19        0.265895232     2.086711653    -1.112069699       H   1  noname    0.110799
   20   H20        1.694903332     1.239586898    -0.495079625       H   1  noname    0.102959


@<TRIPOS>BOND
    1      1      2    1
    2      2      3    1
    3      3      4    1
    4      4      5    1
    5      5      6    1
    6      6      7    1
    7      5      8    1
    8      7      2    1
    9      1      9    1
   10      1     10    1
   11      1     11    1
   12      3     12    1
   13      3     13    1
   14      4     14    1
   15      4     15    1
   16      5     16    1
   17      6     17    1
   18      6     18    1
   19      7     19    1
   20      7     20    1
#
#	File Created by: Spartan'20 Export
#

@<TRIPOS>MOLECULE
M0266
17 17
SMALL
MULLIKEN_CHARGES


@<TRIPOS>ATOM
    1   C1         0.490893537     0.000022224     1.787071165     C.3   1  noname   -0.314015
    2   N2        -0.654792611     0.000038783     0.877860346     N.3   1  noname   -0.076174
    3   C3        -0.641874530    -1.148146912    -0.039398906     C.3   1  noname   -0.119991
    4   C4         0.298959923    -0.775641886    -1.220077749     C.3   1  noname   -0.212653
    5   C5         0.299151384     0.775778777    -1.219893189     C.3   1  noname   -0.212722
    6   C6        -0.642049056     1.148152186    -0.039503184     C.3   1  noname   -0.119893
    7   H7         1.482565395    -0.000452352     1.284645533       H   1  noname    0.095994
    8   H8         0.439734994    -0.887997836     2.433173647       H   1  noname    0.123517
    9   H9         0.440240860     0.888403452     2.432699254       H   1  noname    0.123495
   10   H10       -0.344227965    -2.065127647     0.488202583       H   1  noname    0.100462
   11   H11       -1.668534908    -1.299715205    -0.413645472       H   1  noname    0.090359
   12   H12        1.312725275    -1.167045974    -1.053265350       H   1  noname    0.103710
   13   H13       -0.056465486    -1.199191147    -2.169780843       H   1  noname    0.096496
   14   H14        1.312957874     1.166809795    -1.052482885       H   1  noname    0.103726
   15   H15       -0.055707368     1.199630437    -2.169669400       H   1  noname    0.096496
   16   H16       -0.344873417     2.065285344     0.488073183       H   1  noname    0.100475
   17   H17       -1.668703903     1.299197960    -0.414008732       H   1  noname    0.090352


@<TRIPOS>BOND
    1      1      2    1
    2      2      3    1
    3      3      4    1
    4      4      5    1
    5      5      6    1
    6      6      2    1
    7      1      7    1
    8      1      8    1
    9      1      9    1
   10      3     10    1
   11      3     11    1
   12      4     12    1
   13      4     13    1
   14      5     14    1
   15      5     15    1
   16      6     16    1
   17      6     17    1
#
#	File Created by: Spartan'20 Export
#

@<TRIPOS>MOLECULE
M0267
16 16
SMALL
MULLIKEN_CHARGES


@<TRIPOS>ATOM
    1   C1        -2.055636125     0.614374444     0.011159496     C.3   1  noname   -0.302081
    2   N2        -0.661238369     0.247794124     0.068867020    N.am   1  noname    0.022546
    3   C3        -0.200436969    -1.105986142    -0.191690899     C.3   1  noname   -0.135033
    4   C4         1.294126608    -1.049353123     0.179965093     C.3   1  noname   -0.188792
    5   C5         1.668466946     0.422244639    -0.031846982     C.3   1  noname   -0.132974
    6   C6         0.349868215     1.180152522     0.126258111     C.2   1  noname    0.113108
    7   O7         0.199612782     2.389782950     0.251797831     O.2   1  noname   -0.313696
    8   H8        -2.635712484     0.085292207     0.784095244       H   1  noname    0.122897
    9   H9        -2.122123690     1.696668012     0.181164100       H   1  noname    0.161508
   10   H10       -2.490354188     0.374902734    -0.974729451       H   1  noname    0.116484
   11   H11       -0.763508559    -1.834360305     0.414056897       H   1  noname    0.110441
   12   H12       -0.353016122    -1.374425450    -1.256054923       H   1  noname    0.092044
   13   H13        1.893720589    -1.749198966    -0.416291204       H   1  noname    0.109958
   14   H14        1.417187096    -1.321653077     1.238471850       H   1  noname    0.100726
   15   H15        2.420563043     0.808160734     0.667111418       H   1  noname    0.115476
   16   H16        2.038481229     0.615604696    -1.052333604       H   1  noname    0.105990


@<TRIPOS>BOND
    1      1      2    1
    2      2      3    1
    3      3      4    1
    4      4      5    1
    5      5      6    1
    6      6      7    2
    7      6      2    am
    8      1      8    1
    9      1      9    1
   10      1     10    1
   11      3     11    1
   12      3     12    1
   13      4     13    1
   14      4     14    1
   15      5     15    1
   16      5     16    1
#
#	File Created by: Spartan'20 Export
#

@<TRIPOS>MOLECULE
M0268
20 20
SMALL
MULLIKEN_CHARGES


@<TRIPOS>ATOM
    1   C1        -0.649098671    -0.000014015     1.982020385     C.3   1  noname   -0.318191
    2   N2         0.543409331     0.000037395     1.147451854     N.3   1  noname   -0.055769
    3   C3         0.695792800    -1.205618122     0.331869772     C.3   1  noname   -0.145090
    4   C4        -0.235605438    -1.262238120    -0.892201700     C.3   1  noname   -0.195681
    5   C5        -0.065949547     0.000071000    -1.748298212     C.3   1  noname   -0.143903
    6   C6        -0.235652401     1.262368520    -0.892180342     C.3   1  noname   -0.195603
    7   C7         0.695829628     1.205654139     0.331812202     C.3   1  noname   -0.145087
    8   H8        -0.637366879    -0.889309021     2.630367654       H   1  noname    0.120660
    9   H9        -1.615097753    -0.000359615     1.432590774       H   1  noname    0.094193
   10   H10       -0.637720866     0.889501003     2.630053821       H   1  noname    0.120652
   11   H11        1.743996690    -1.238118596    -0.019363481       H   1  noname    0.091749
   12   H12        0.546195797    -2.085327480     0.977640767       H   1  noname    0.100373
   13   H13       -1.284873638    -1.347915732    -0.560522981       H   1  noname    0.095815
   14   H14       -0.020014146    -2.167035077    -1.483834749       H   1  noname    0.093643
   15   H15       -0.776420257     0.000025978    -2.589728547       H   1  noname    0.098767
   16   H16        0.947135193     0.000036319    -2.191444651       H   1  noname    0.080224
   17   H17       -1.284918991     1.347862568    -0.560447811       H   1  noname    0.095800
   18   H18       -0.020124049     2.167197122    -1.483775483       H   1  noname    0.093640
   19   H19        0.546516542     2.085378650     0.977596678       H   1  noname    0.100387
   20   H20        1.743966655     1.237803086    -0.019605950       H   1  noname    0.091729


@<TRIPOS>BOND
    1      1      2    1
    2      2      3    1
    3      3      4    1
    4      4      5    1
    5      5      6    1
    6      6      7    1
    7      7      2    1
    8      1      8    1
    9      1      9    1
   10      1     10    1
   11      3     11    1
   12      3     12    1
   13      4     13    1
   14      4     14    1
   15      5     15    1
   16      5     16    1
   17      6     17    1
   18      6     18    1
   19      7     19    1
   20      7     20    1
#
#	File Created by: Spartan'20 Export
#

@<TRIPOS>MOLECULE
M0269
19 19
SMALL
MULLIKEN_CHARGES


@<TRIPOS>ATOM
    1   C1         2.247428271    -0.700839126     0.604764545     C.3   1  noname   -0.297445
    2   N2         0.893135582    -0.369152396     0.195850689    N.am   1  noname    0.011655
    3   C3         0.664295317     1.038919417    -0.126570008     C.3   1  noname   -0.171837
    4   C4        -0.659331197     1.285070083    -0.836890798     C.3   1  noname   -0.152833
    5   C5        -1.786699447     0.584417587    -0.085998207     C.3   1  noname   -0.152506
    6   C6        -1.511241024    -0.918259686    -0.074311572     C.3   1  noname   -0.169907
    7   C7        -0.092072640    -1.323862608     0.310467859     C.2   1  noname    0.128752
    8   O8         0.146977281    -2.477576602     0.672412165     O.2   1  noname   -0.332468
    9   H9         2.291124731    -1.772304980     0.827384716       H   1  noname    0.167022
   10   H10        2.535515364    -0.129761636     1.504299054       H   1  noname    0.115046
   11   H11        2.958161582    -0.457929249    -0.201390572       H   1  noname    0.119053
   12   H12        0.705522119     1.636223219     0.806779960       H   1  noname    0.099122
   13   H13        1.505579282     1.381183243    -0.753142606       H   1  noname    0.114189
   14   H14       -0.605536922     0.897103258    -1.868178494       H   1  noname    0.093594
   15   H15       -0.826841461     2.370518358    -0.906791442       H   1  noname    0.107939
   16   H16       -1.835064151     0.969346531     0.947275203       H   1  noname    0.092734
   17   H17       -2.763930909     0.793047409    -0.547437603       H   1  noname    0.105028
   18   H18       -2.178936180    -1.461674425     0.608291930       H   1  noname    0.122508
   19   H19       -1.688085598    -1.344468397    -1.076814820       H   1  noname    0.107450


@<TRIPOS>BOND
    1      1      2    1
    2      2      3    1
    3      3      4    1
    4      4      5    1
    5      5      6    1
    6      6      7    1
    7      7      8    2
    8      7      2    am
    9      1      9    1
   10      1     10    1
   11      1     11    1
   12      3     12    1
   13      3     13    1
   14      4     14    1
   15      4     15    1
   16      5     16    1
   17      5     17    1
   18      6     18    1
   19      6     19    1
#
#	File Created by: Spartan'20 Export
#

@<TRIPOS>MOLECULE
M0270
22 22
SMALL
MULLIKEN_CHARGES


@<TRIPOS>ATOM
    1   C1         2.669202813     0.152458238     0.438268526     C.3   1  noname   -0.310917
    2   N2         1.243578450     0.190664282     0.140378827    N.am   1  noname    0.011049
    3   C3         0.640723187    -1.137480035    -0.026466685     C.3   1  noname   -0.186358
    4   C4        -0.571137981    -1.219183280    -0.953792138     C.3   1  noname   -0.131648
    5   C5        -1.894392953    -0.824832863    -0.288494245     C.3   1  noname   -0.237096
    6   C6        -1.754154300     0.418076411     0.595211674     C.3   1  noname   -0.140864
    7   C7        -0.898102456     1.517535700    -0.042303201     C.3   1  noname   -0.155116
    8   C8         0.622495239     1.423043974     0.108401976     C.2   1  noname    0.117469
    9   O9         1.270328468     2.468466611     0.213747432     O.2   1  noname   -0.332904
   10   H10        3.225444028    -0.307890374    -0.395256105       H   1  noname    0.119986
   11   H11        3.023067668     1.177209518     0.590419124       H   1  noname    0.165387
   12   H12        2.857903450    -0.442012787     1.348438193       H   1  noname    0.119486
   13   H13        1.441401792    -1.767537322    -0.445066777       H   1  noname    0.119853
   14   H14        0.395887558    -1.575069654     0.961975380       H   1  noname    0.103217
   15   H15       -0.374016668    -0.590864142    -1.837806955       H   1  noname    0.104680
   16   H16       -0.643381453    -2.251677875    -1.329795735       H   1  noname    0.110894
   17   H17       -2.649321840    -0.643813795    -1.070981946       H   1  noname    0.101886
   18   H18       -2.271552578    -1.665684315     0.316636423       H   1  noname    0.100382
   19   H19       -2.752397190     0.823209218     0.822102110       H   1  noname    0.108995
   20   H20       -1.317243661     0.143240823     1.570438828       H   1  noname    0.099476
   21   H21       -1.132042176     1.617582092    -1.116818742       H   1  noname    0.103570
   22   H22       -1.132289399     2.494559574     0.400764036       H   1  noname    0.125943


@<TRIPOS>BOND
    1      1      2    1
    2      2      3    1
    3      3      4    1
    4      4      5    1
    5      5      6    1
    6      6      7    1
    7      7      8    1
    8      8      9    2
    9      8      2    am
   10      1     10    1
   11      1     11    1
   12      1     12    1
   13      3     13    1
   14      3     14    1
   15      4     15    1
   16      4     16    1
   17      5     17    1
   18      5     18    1
   19      6     19    1
   20      6     20    1
   21      7     21    1
   22      7     22    1
#
#	File Created by: Spartan'20 Export
#

@<TRIPOS>MOLECULE
M0271
21 21
SMALL
MULLIKEN_CHARGES


@<TRIPOS>ATOM
    1   C1         0.002298462     2.433558383     1.083476955     C.3   1  noname   -0.299730
    2   N2        -0.100544532     1.183346234     0.355894538    N.am   1  noname   -0.033854
    3   C3         0.175030536     1.239667686    -1.070693076     C.3   1  noname   -0.133797
    4   C4        -0.361825346     0.000008068    -1.767135556     C.3   1  noname   -0.149449
    5   C5         0.174302515    -1.239910965    -1.070743216     C.3   1  noname   -0.134048
    6   N6        -0.099048573    -1.182445332     0.356237180   N.pl3   1  noname   -0.033694
    7   C7        -0.128254207     0.000694968     1.085226631     C.2   1  noname    0.217930
    8   O8        -0.217363491     0.000672675     2.317816263     O.2   1  noname   -0.385900
    9   C9         0.003634074    -2.433111204     1.083108300     C.3   1  noname   -0.299826
   10   H10       -0.695610875     3.174308965     0.661159508       H   1  noname    0.114613
   11   H11        1.024591466     2.852516283     1.032334030       H   1  noname    0.106903
   12   H12       -0.249287951     2.246997652     2.132200133       H   1  noname    0.168037
   13   H13       -0.304554231     2.145551239    -1.477147835       H   1  noname    0.113147
   14   H14        1.264013395     1.345765736    -1.259796674       H   1  noname    0.086501
   15   H15       -1.462176703     0.000140445    -1.722506447       H   1  noname    0.097370
   16   H16       -0.064598013    -0.000149612    -2.825844500       H   1  noname    0.106231
   17   H17        1.262821920    -1.348202290    -1.261278443       H   1  noname    0.086580
   18   H18       -0.307194972    -2.145415629    -1.476020166       H   1  noname    0.113089
   19   H19       -0.696473440    -3.172843924     0.662368150       H   1  noname    0.114627
   20   H20        1.025007063    -2.853986494     1.028672566       H   1  noname    0.106952
   21   H21       -0.244767098    -2.247162883     2.132671659       H   1  noname    0.168027


@<TRIPOS>BOND
    1      1      2    1
    2      2      3    1
    3      3      4    1
    4      4      5    1
    5      5      6    1
    6      6      7    1
    7      7      8    2
    8      6      9    1
    9      7      2    am
   10      1     10    1
   11      1     11    1
   12      1     12    1
   13      3     13    1
   14      3     14    1
   15      4     15    1
   16      4     16    1
   17      5     17    1
   18      5     18    1
   19      9     19    1
   20      9     20    1
   21      9     21    1
#
#	File Created by: Spartan'20 Export
#

@<TRIPOS>MOLECULE
M0272
26 27
SMALL
MULLIKEN_CHARGES


@<TRIPOS>ATOM
    1   C1        -1.163043685    -2.103078944    -0.127302486     C.3   1  noname   -0.303300
    2   N2        -1.348238462    -0.776840644    -0.681422272     N.3   1  noname   -0.088308
    3   C3        -2.079144461     0.154900659     0.170306739     C.3   1  noname   -0.142582
    4   C4        -1.912250600     1.515632418    -0.533200808     C.3   1  noname   -0.186701
    5   C5        -0.725019938     1.314785048    -1.514266931     C.3   1  noname   -0.220006
    6   C6        -0.145143422    -0.071814749    -1.170184851     C.3   1  noname    0.191998
    7   C7         1.005470027    -0.039485453    -0.174389770     C.2   1  noname   -0.002278
    8   C8         1.080787146     0.871293381     0.888987522     C.2   1  noname   -0.131385
    9   C9         2.136653060     0.782445381     1.794469979     C.2   1  noname   -0.084937
   10   C10        3.098755277    -0.212652442     1.608702059     C.2   1  noname   -0.057610
   11   N11        3.061382902    -1.091388990     0.597044373     N.2   1  noname   -0.128978
   12   C12        2.033908821    -0.991691548    -0.256535226     C.2   1  noname   -0.143766
   13   H13       -0.648541405    -2.744670683    -0.858073803       H   1  noname    0.120068
   14   H14       -0.577424455    -2.117897092     0.816180741       H   1  noname    0.111532
   15   H15       -2.148731030    -2.546945942     0.077331091       H   1  noname    0.124942
   16   H16       -3.130278315    -0.165056193     0.251649616       H   1  noname    0.104985
   17   H17       -1.674165464     0.188351464     1.207400363       H   1  noname    0.068717
   18   H18       -2.823840931     1.794420568    -1.078201270       H   1  noname    0.097673
   19   H19       -1.718850043     2.318698834     0.191948897       H   1  noname    0.098498
   20   H20        0.033403460     2.105527510    -1.440306570       H   1  noname    0.114844
   21   H21       -1.086933086     1.301759280    -2.550634241       H   1  noname    0.098663
   22   H22        0.211089254    -0.597972116    -2.072379774       H   1  noname    0.091081
   23   H23        0.331441657     1.656285291     1.004146267       H   1  noname    0.114415
   24   H24        2.220540019     1.479663069     2.629860969       H   1  noname    0.107524
   25   H25        3.942823751    -0.307428369     2.298885760       H   1  noname    0.109722
   26   H26        2.025349923    -1.716839740    -1.080016374       H   1  noname    0.099878


@<TRIPOS>BOND
    1      1      2    1
    2      2      3    1
    3      3      4    1
    4      4      5    1
    5      5      6    1
    6      6      7    1
    7      7      8    2
    8      8      9    1
    9      9     10    2
   10     10     11    1
   11     11     12    2
   12      6      2    1
   13     12      7    1
   14      1     13    1
   15      1     14    1
   16      1     15    1
   17      3     16    1
   18      3     17    1
   19      4     18    1
   20      4     19    1
   21      5     20    1
   22      5     21    1
   23      6     22    1
   24      8     23    1
   25      9     24    1
   26     10     25    1
   27     12     26    1
#
#	File Created by: Spartan'20 Export
#

@<TRIPOS>MOLECULE
M0273
18 18
SMALL
MULLIKEN_CHARGES


@<TRIPOS>ATOM
    1   C1        -2.441635158     0.013425407     0.635908415     C.3   1  noname   -0.294100
    2   N2        -1.102337629    -0.204057450     0.142340288    N.am   1  noname   -0.039378
    3   C3        -0.762750196     0.093300928    -1.238139981     C.3   1  noname   -0.113372
    4   C4         0.762555146    -0.092555928    -1.238626817     C.3   1  noname   -0.113265
    5   N5         1.103399434     0.205741457     0.141466433   N.pl3   1  noname   -0.039489
    6   C6         0.000999696     0.000858767     0.969258572     C.2   1  noname    0.192868
    7   O7         0.001375215     0.000777503     2.194726879     O.2   1  noname   -0.340797
    8   C8         2.441893981    -0.014053352     0.636085981     C.3   1  noname   -0.293893
    9   H9        -3.141490326    -0.706052746     0.184727745       H   1  noname    0.122924
   10   H10       -2.429664063    -0.127956364     1.723806385       H   1  noname    0.160496
   11   H11       -2.799424258     1.036809720     0.411990284       H   1  noname    0.104819
   12   H12       -1.271082202    -0.583958586    -1.940779965       H   1  noname    0.111788
   13   H13       -1.039175002     1.134824398    -1.501740851       H   1  noname    0.081100
   14   H14        1.270205248     0.584041581    -1.942270621       H   1  noname    0.111812
   15   H15        1.037996957    -1.134469001    -1.501524849       H   1  noname    0.081087
   16   H16        2.797635572    -1.038238117     0.412791786       H   1  noname    0.104716
   17   H17        2.428157785     0.127219322     1.724022957       H   1  noname    0.160516
   18   H18        3.143339800     0.704342459     0.185957359       H   1  noname    0.122887


@<TRIPOS>BOND
    1      1      2    1
    2      2      3    1
    3      3      4    1
    4      4      5    1
    5      5      6    1
    6      6      7    2
    7      5      8    1
    8      6      2    am
    9      1      9    1
   10      1     10    1
   11      1     11    1
   12      3     12    1
   13      3     13    1
   14      4     14    1
   15      4     15    1
   16      8     16    1
   17      8     17    1
   18      8     18    1
#
#	File Created by: Spartan'20 Export
#

@<TRIPOS>MOLECULE
M0274
18 18
SMALL
MULLIKEN_CHARGES


@<TRIPOS>ATOM
    1   C1         2.458617540    -0.016618452     0.598251572     C.3   1  noname   -0.279269
    2   N2         1.100043837     0.156798207     0.143233650   N.pl3   1  noname   -0.002324
    3   C3         0.757176446    -0.110834112    -1.247579307     C.3   1  noname   -0.116507
    4   C4        -0.757374177     0.111582104    -1.247171232     C.3   1  noname   -0.116638
    5   N5        -1.099145492    -0.155435783     0.143915658   N.pl3   1  noname   -0.002227
    6   C6         0.000837573     0.000642289     0.959692795     C.2   1  noname    0.119195
    7   S7         0.001023327     0.000433845     2.625193083     S.2   1  noname   -0.381018
    8   C8        -2.458315211     0.016059856     0.598042466     C.3   1  noname   -0.279526
    9   H9         2.815743040    -1.047246303     0.415060780       H   1  noname    0.109658
   10   H10        2.485089449     0.182413840     1.677164201       H   1  noname    0.153407
   11   H11        3.122537795     0.685571614     0.072584809       H   1  noname    0.120652
   12   H12        1.014431698    -1.154138821    -1.520012195       H   1  noname    0.087924
   13   H13        1.291552736     0.564854950    -1.931151763       H   1  noname    0.118185
   14   H14       -1.015530658     1.154585031    -1.520057459       H   1  noname    0.087948
   15   H15       -1.292357613    -0.564581992    -1.929913064       H   1  noname    0.118168
   16   H16       -3.120841606    -0.687219920     0.071863259       H   1  noname    0.120699
   17   H17       -2.817337150     1.045914561     0.413970753       H   1  noname    0.109742
   18   H18       -2.486151535    -0.182780915     1.676911994       H   1  noname    0.153454


@<TRIPOS>BOND
    1      1      2    1
    2      2      3    1
    3      3      4    1
    4      4      5    1
    5      5      6    1
    6      6      7    2
    7      5      8    1
    8      6      2    1
    9      1      9    1
   10      1     10    1
   11      1     11    1
   12      3     12    1
   13      3     13    1
   14      4     14    1
   15      4     15    1
   16      8     16    1
   17      8     17    1
   18      8     18    1
#
#	File Created by: Spartan'20 Export
#

@<TRIPOS>MOLECULE
M0275
22 22
SMALL
MULLIKEN_CHARGES


@<TRIPOS>ATOM
    1   C1        -2.821226966    -0.000011123    -0.017688310     C.3   1  noname   -0.281845
    2   N2        -1.399662354     0.000122909    -0.312311104     N.3   1  noname   -0.100486
    3   C3        -0.736117215     1.197011951     0.194994739     C.3   1  noname   -0.098496
    4   C4         0.736172710     1.197035239    -0.194466163     C.3   1  noname   -0.098517
    5   N5         1.399894100     0.000134823     0.312636697     N.3   1  noname   -0.100475
    6   C6         0.736217823    -1.196837654    -0.194304608     C.3   1  noname   -0.098582
    7   C7        -0.736152394    -1.196855102     0.194780629     C.3   1  noname   -0.098561
    8   C8         2.821312270    -0.000040015     0.017137052     C.3   1  noname   -0.281798
    9   H9        -3.292909121     0.890895361    -0.458461780       H   1  noname    0.119918
   10   H10       -3.042981197    -0.000370171     1.074704552       H   1  noname    0.087617
   11   H11       -3.292773427    -0.890770089    -0.458931705       H   1  noname    0.119921
   12   H12       -1.230827665     2.082323822    -0.235248245       H   1  noname    0.097374
   13   H13       -0.818122537     1.269213922     1.305255545       H   1  noname    0.053184
   14   H14        0.817868464     1.269239385    -1.304739511       H   1  noname    0.053186
   15   H15        1.230853331     2.082407977     0.235653386       H   1  noname    0.097380
   16   H16        1.230796606    -2.082103639     0.236176821       H   1  noname    0.097376
   17   H17        0.818252967    -1.269429119    -1.304533637       H   1  noname    0.053210
   18   H18       -1.230690204    -2.082106130    -0.235831634       H   1  noname    0.097373
   19   H19       -0.818487025    -1.269496681     1.304980583       H   1  noname    0.053207
   20   H20        3.293244887     0.890937674     0.457469870       H   1  noname    0.119916
   21   H21        3.042235972    -0.000525503    -1.075417681       H   1  noname    0.087622
   22   H22        3.293100975    -0.890777836     0.458144502       H   1  noname    0.119923


@<TRIPOS>BOND
    1      1      2    1
    2      2      3    1
    3      3      4    1
    4      4      5    1
    5      5      6    1
    6      6      7    1
    7      5      8    1
    8      7      2    1
    9      1      9    1
   10      1     10    1
   11      1     11    1
   12      3     12    1
   13      3     13    1
   14      4     14    1
   15      4     15    1
   16      6     16    1
   17      6     17    1
   18      7     18    1
   19      7     19    1
   20      8     20    1
   21      8     21    1
   22      8     22    1
#
#	File Created by: Spartan'20 Export
#

@<TRIPOS>MOLECULE
M0276
18 18
SMALL
MULLIKEN_CHARGES


@<TRIPOS>ATOM
    1   C1         1.954979246     0.432477464    -0.506830166     C.3   1  noname   -0.301859
    2   N2         0.774183956     0.381007119     0.337187227     N.3   1  noname   -0.081896
    3   C3         0.348298108    -0.986747449     0.693304252     C.3   1  noname   -0.135717
    4   C4        -0.865496393    -1.442877479    -0.110238770     C.3   1  noname   -0.049236
    5   O5        -1.999392478    -0.595816321     0.118521575     O.3   1  noname   -0.239573
    6   C6        -1.640607909     0.760555415     0.421196528     C.3   1  noname   -0.028903
    7   C7        -0.327886877     1.163460914    -0.229681592     C.3   1  noname   -0.154114
    8   H8         1.802433060    -0.009961134    -1.518648578       H   1  noname    0.088990
    9   H9         2.257310311     1.481590290    -0.648616498       H   1  noname    0.122353
   10   H10        2.789157672    -0.094406505    -0.021642736       H   1  noname    0.127134
   11   H11        1.183751292    -1.684115254     0.528972160       H   1  noname    0.103056
   12   H12        0.101080141    -1.031167677     1.768718672       H   1  noname    0.098263
   13   H13       -1.170361882    -2.460155451     0.180927311       H   1  noname    0.103557
   14   H14       -0.618714878    -1.462383397    -1.190546616       H   1  noname    0.071897
   15   H15       -2.463184801     1.391863863     0.053838673       H   1  noname    0.106525
   16   H16       -1.565150303     0.898563596     1.517601362       H   1  noname    0.075734
   17   H17       -0.139638301     2.237929793    -0.062737532       H   1  noname    0.108122
   18   H18       -0.420759963     1.020182212    -1.331325271       H   1  noname    0.073702


@<TRIPOS>BOND
    1      1      2    1
    2      2      3    1
    3      3      4    1
    4      4      5    1
    5      5      6    1
    6      6      7    1
    7      7      2    1
    8      1      8    1
    9      1      9    1
   10      1     10    1
   11      3     11    1
   12      3     12    1
   13      4     13    1
   14      4     14    1
   15      6     15    1
   16      6     16    1
   17      7     17    1
   18      7     18    1
#
#	File Created by: Spartan'20 Export
#

@<TRIPOS>MOLECULE
M0277
24 25
SMALL
MULLIKEN_CHARGES


@<TRIPOS>ATOM
    1   C1         3.106175325     0.695357973     0.089062436     C.3   1  noname   -0.285622
    2   N2         1.757796924     0.296014339    -0.272881016     N.3   1  noname   -0.086213
    3   C3         1.551395955    -1.144985350    -0.162027065     C.3   1  noname   -0.120998
    4   C4         0.239087505    -1.530358172    -0.837244262     C.3   1  noname   -0.079395
    5   C5        -0.905014101    -0.656524593    -0.385565906     C.2   1  noname    0.038324
    6   C6        -2.234901002    -1.047087065    -0.597749771     C.2   1  noname   -0.173333
    7   C7        -3.297822595    -0.239036173    -0.199809195     C.2   1  noname   -0.093744
    8   C8        -3.039548935     0.984462168     0.425556527     C.2   1  noname   -0.103573
    9   C9        -1.721331940     1.380426284     0.642207102     C.2   1  noname   -0.183027
   10   C10       -0.648699481     0.572452277     0.241702784     C.2   1  noname    0.130428
   11   C11        0.768261859     1.018118305     0.516677275     C.3   1  noname   -0.174137
   12   H12        3.224949478     1.778611485    -0.062195101       H   1  noname    0.121369
   13   H13        3.833285300     0.177515153    -0.553035705       H   1  noname    0.123028
   14   H14        3.359587224     0.470944640     1.151353433       H   1  noname    0.087920
   15   H15        2.393301804    -1.656364865    -0.653078009       H   1  noname    0.105409
   16   H16        1.548725178    -1.473470377     0.905171279       H   1  noname    0.061660
   17   H17        0.359953044    -1.431129399    -1.929667661       H   1  noname    0.085259
   18   H18        0.006857792    -2.589150919    -0.638363488       H   1  noname    0.098423
   19   H19       -2.434900197    -2.005433977    -1.085279645       H   1  noname    0.102766
   20   H20       -4.325917313    -0.561435571    -0.375597475       H   1  noname    0.105387
   21   H21       -3.863413993     1.627838648     0.739796773       H   1  noname    0.105219
   22   H22       -1.513904519     2.337729758     1.128851928       H   1  noname    0.102726
   23   H23        0.970574488     0.900673925     1.611945453       H   1  noname    0.071808
   24   H24        0.865502200     2.094831508     0.300169311       H   1  noname    0.110251


@<TRIPOS>BOND
    1      1      2    1
    2      2      3    1
    3      3      4    1
    4      4      5    1
    5      5      6    2
    6      6      7    1
    7      7      8    2
    8      8      9    1
    9      9     10    2
   10     10     11    1
   11     11      2    1
   12     10      5    1
   13      1     12    1
   14      1     13    1
   15      1     14    1
   16      3     15    1
   17      3     16    1
   18      4     17    1
   19      4     18    1
   20      6     19    1
   21      7     20    1
   22      8     21    1
   23      9     22    1
   24     11     23    1
   25     11     24    1
#
#	File Created by: Spartan'20 Export
#

@<TRIPOS>MOLECULE
M0278
24 24
SMALL
MULLIKEN_CHARGES


@<TRIPOS>ATOM
    1   C1        -2.768297879     0.000004116     0.090086130     C.3   1  noname   -0.292945
    2   N2        -1.380163431     0.000079853     0.520742842     N.3   1  noname   -0.038854
    3   C3        -0.687140543    -1.190557896     0.054778330     C.3   1  noname   -0.132227
    4   N4         0.691024251    -1.195311042     0.519276597     N.3   1  noname   -0.038306
    5   C5         1.377161943     0.000051490     0.053916640     C.3   1  noname   -0.131477
    6   N6         0.690944901     1.195386776     0.519182283     N.3   1  noname   -0.038324
    7   C7        -0.687105623     1.190548267     0.054390910     C.3   1  noname   -0.132181
    8   C8         1.383866149     2.398731423     0.089840137     C.3   1  noname   -0.293085
    9   C9         1.383807119    -2.398616611     0.089546655     C.3   1  noname   -0.293099
   10   H10       -2.886028320    -0.000275284    -1.017688499       H   1  noname    0.092296
   11   H11       -3.277250158     0.889985066     0.487970647       H   1  noname    0.125432
   12   H12       -3.277252679    -0.889805429     0.488363465       H   1  noname    0.125436
   13   H13       -1.200578433    -2.079550887     0.454341045       H   1  noname    0.111175
   14   H14       -0.724388725    -1.253206032    -1.074464373       H   1  noname    0.048566
   15   H15        1.448084481    -0.000028459    -1.075875142       H   1  noname    0.048675
   16   H16        2.403969142     0.000044615     0.452869527       H   1  noname    0.111317
   17   H17       -0.724145294     1.252630576    -1.074903739       H   1  noname    0.048579
   18   H18       -1.200653902     2.079663037     0.453505093       H   1  noname    0.111172
   19   H19        0.863772462     3.282929723     0.485787391       H   1  noname    0.125159
   20   H20        1.445361212     2.501978808    -1.018063992       H   1  noname    0.092098
   21   H21        2.408088891     2.398013440     0.489975913       H   1  noname    0.125445
   22   H22        1.444976512    -2.501722335    -1.018398222       H   1  noname    0.092105
   23   H23        0.863798497    -3.282898295     0.485444525       H   1  noname    0.125161
   24   H24        2.408149428    -2.398074919     0.489375837       H   1  noname    0.125447


@<TRIPOS>BOND
    1      1      2    1
    2      2      3    1
    3      3      4    1
    4      4      5    1
    5      5      6    1
    6      6      7    1
    7      6      8    1
    8      4      9    1
    9      7      2    1
   10      1     10    1
   11      1     11    1
   12      1     12    1
   13      3     13    1
   14      3     14    1
   15      5     15    1
   16      5     16    1
   17      7     17    1
   18      7     18    1
   19      8     19    1
   20      8     20    1
   21      8     21    1
   22      9     22    1
   23      9     23    1
   24      9     24    1
#
#	File Created by: Spartan'20 Export
#

@<TRIPOS>MOLECULE
M0279
24 25
SMALL
MULLIKEN_CHARGES


@<TRIPOS>ATOM
    1   C1        -0.878621215     0.000009168    -2.269804120     C.3   1  noname   -0.318787
    2   N2        -0.883765612     0.000084530    -0.811428996     N.3   1  noname   -0.113980
    3   C3        -0.147222159    -1.145438862    -0.232736119     C.3   1  noname    0.115456
    4   C4        -0.566587636    -1.268469667     1.240014316     C.3   1  noname   -0.199033
    5   C5        -0.193092093     0.000130229     2.020667332     C.3   1  noname   -0.182226
    6   C6        -0.566838899     1.268620034     1.239942289     C.3   1  noname   -0.198962
    7   C7        -0.147141452     1.145568381    -0.232730934     C.3   1  noname    0.115405
    8   C8         1.359267898     0.775663321    -0.382578499     C.3   1  noname   -0.267086
    9   C9         1.359158508    -0.775768041    -0.382883440     C.3   1  noname   -0.267134
   10   H10       -1.414578791     0.888898333    -2.633520069       H   1  noname    0.122228
   11   H11       -1.414852774    -0.888784240    -2.633379504       H   1  noname    0.122231
   12   H12        0.132898123    -0.000236387    -2.730677781       H   1  noname    0.094931
   13   H13       -0.409450994    -2.065654129    -0.777179303       H   1  noname    0.071994
   14   H14       -0.092758487    -2.152555389     1.697046328       H   1  noname    0.088628
   15   H15       -1.656499717    -1.425806583     1.266669254       H   1  noname    0.078343
   16   H16       -0.672484715     0.000049571     3.011723472       H   1  noname    0.099264
   17   H17        0.893273626     0.000168448     2.211465492       H   1  noname    0.098986
   18   H18       -0.093476133     2.152892691     1.697068099       H   1  noname    0.088637
   19   H19       -1.656841766     1.425416599     1.266305606       H   1  noname    0.078320
   20   H20       -0.409218044     2.065742137    -0.777304450       H   1  noname    0.072008
   21   H21        1.763726715     1.174144482    -1.323720069       H   1  noname    0.110118
   22   H22        1.965921150     1.198747507     0.431039802       H   1  noname    0.095333
   23   H23        1.965982694    -1.199413313     0.430325081       H   1  noname    0.095321
   24   H24        1.763201774    -1.174008821    -1.324323787       H   1  noname    0.110132


@<TRIPOS>BOND
    1      1      2    1
    2      2      3    1
    3      3      4    1
    4      4      5    1
    5      5      6    1
    6      6      7    1
    7      7      8    1
    8      8      9    1
    9      7      2    1
   10      9      3    1
   11      1     10    1
   12      1     11    1
   13      1     12    1
   14      3     13    1
   15      4     14    1
   16      4     15    1
   17      5     16    1
   18      5     17    1
   19      6     18    1
   20      6     19    1
   21      7     20    1
   22      8     21    1
   23      8     22    1
   24      9     23    1
   25      9     24    1
#
#	File Created by: Spartan'20 Export
#

@<TRIPOS>MOLECULE
M0280
24 23
SMALL
MULLIKEN_CHARGES


@<TRIPOS>ATOM
    1   C1         0.533712290     2.614174954     0.034317006     C.3   1  noname   -0.270586
    2   N2        -0.489524714     1.616570839     0.259269772     N.2   1  noname   -0.230594
    3   C3        -0.238389115     0.372451976     0.023097639     C.2   1  noname    0.107296
    4   N4        -1.299755591    -0.523891251    -0.137849107   N.pl3   1  noname   -0.056105
    5   C5        -2.628873025     0.035681142    -0.313359488     C.3   1  noname   -0.265523
    6   C6        -1.286966917    -1.781504532     0.596234742     C.3   1  noname   -0.276491
    7   N7         1.027395951    -0.205669336    -0.141556784   N.pl3   1  noname   -0.103484
    8   C8         1.296322442    -1.234775655    -1.124047767     C.3   1  noname   -0.298445
    9   C9         2.116763114     0.115364156     0.754676388     C.3   1  noname   -0.284682
   10   H10        0.071343021     3.498472581    -0.432798249       H   1  noname    0.122070
   11   H11        0.979285862     2.963686972     0.983197879       H   1  noname    0.110234
   12   H12        1.360654526     2.272518100    -0.618041969       H   1  noname    0.092043
   13   H13       -3.082615454     0.351156858     0.644741610       H   1  noname    0.107281
   14   H14       -2.572382787     0.918212949    -0.959640438       H   1  noname    0.135861
   15   H15       -3.275920686    -0.725958145    -0.776212877       H   1  noname    0.110513
   16   H16       -0.256743874    -2.075825709     0.824510674       H   1  noname    0.131792
   17   H17       -1.760030225    -2.582530479     0.005766886       H   1  noname    0.121747
   18   H18       -1.838520233    -1.691190734     1.552510211       H   1  noname    0.112433
   19   H19        1.532050030    -2.214104522    -0.662619094       H   1  noname    0.106839
   20   H20        2.161444504    -0.948680424    -1.749501470       H   1  noname    0.122544
   21   H21        0.423624630    -1.360227024    -1.775194833       H   1  noname    0.144251
   22   H22        2.487890327    -0.801553548     1.251271387       H   1  noname    0.112257
   23   H23        1.768980731     0.805380389     1.531152816       H   1  noname    0.147510
   24   H24        2.970255195     0.582240442     0.230075065       H   1  noname    0.118009


@<TRIPOS>BOND
    1      1      2    1
    2      2      3    2
    3      3      4    1
    4      4      5    1
    5      4      6    1
    6      3      7    1
    7      7      8    1
    8      7      9    1
    9      1     10    1
   10      1     11    1
   11      1     12    1
   12      5     13    1
   13      5     14    1
   14      5     15    1
   15      6     16    1
   16      6     17    1
   17      6     18    1
   18      8     19    1
   19      8     20    1
   20      8     21    1
   21      9     22    1
   22      9     23    1
   23      9     24    1
#
#	File Created by: Spartan'20 Export
#

@<TRIPOS>MOLECULE
M0281
26 26
SMALL
MULLIKEN_CHARGES


@<TRIPOS>ATOM
    1   C1        -2.260760907     2.149609450    -0.117251651     C.3   1  noname   -0.274429
    2   N2        -0.878513565     1.763894363     0.073394251     N.2   1  noname   -0.177787
    3   C3        -0.516221431     0.526054908     0.025180314     C.2   1  noname    0.023980
    4   C4         0.955281243     0.254496983     0.010241145     C.2   1  noname    0.143907
    5   C5         1.502000738    -0.837694847     0.700391266     C.2   1  noname   -0.117776
    6   C6         2.880914558    -1.048657322     0.719226522     C.2   1  noname   -0.111042
    7   C7         3.731188524    -0.175211842     0.036783798     C.2   1  noname   -0.077875
    8   C8         3.194875224     0.915882062    -0.654128290     C.2   1  noname   -0.097125
    9   C9         1.817768413     1.130872733    -0.663903637     C.2   1  noname   -0.166704
   10   N10       -1.349341296    -0.599185398     0.031193828   N.pl3   1  noname   -0.058256
   11   C11       -2.552786392    -0.671611850     0.834432394     C.3   1  noname   -0.295865
   12   C12       -1.092069417    -1.762996671    -0.795768647     C.3   1  noname   -0.310938
   13   H13       -2.778576812     2.320545677     0.843127269       H   1  noname    0.118264
   14   H14       -2.858394318     1.422781443    -0.698819423       H   1  noname    0.098183
   15   H15       -2.275495289     3.112613938    -0.650240424       H   1  noname    0.130039
   16   H16        0.835865927    -1.514015219     1.240428367       H   1  noname    0.112461
   17   H17        3.293737788    -1.894635973     1.272278565       H   1  noname    0.107991
   18   H18        4.809847944    -0.342878463     0.044968571       H   1  noname    0.109935
   19   H19        3.854953481     1.601198582    -1.189462860       H   1  noname    0.109356
   20   H20        1.382114719     1.984962948    -1.184347007       H   1  noname    0.118308
   21   H21       -3.480335508    -0.660284777     0.232827500       H   1  noname    0.118526
   22   H22       -2.544365051    -1.610558415     1.417752079       H   1  noname    0.119332
   23   H23       -2.584869774     0.163025393     1.542072054       H   1  noname    0.147136
   24   H24       -1.020509597    -2.686044020    -0.191477328       H   1  noname    0.113090
   25   H25       -1.909660846    -1.904142190    -1.526902622       H   1  noname    0.121317
   26   H26       -0.156648355    -1.638021492    -1.351996033       H   1  noname    0.160411


@<TRIPOS>BOND
    1      1      2    1
    2      2      3    2
    3      3      4    1
    4      4      5    2
    5      5      6    1
    6      6      7    2
    7      7      8    1
    8      8      9    2
    9      3     10    1
   10     10     11    1
   11     10     12    1
   12      9      4    1
   13      1     13    1
   14      1     14    1
   15      1     15    1
   16      5     16    1
   17      6     17    1
   18      7     18    1
   19      8     19    1
   20      9     20    1
   21     11     21    1
   22     11     22    1
   23     11     23    1
   24     12     24    1
   25     12     25    1
   26     12     26    1
#
#	File Created by: Spartan'20 Export
#

@<TRIPOS>MOLECULE
M0282
16 15
SMALL
MULLIKEN_CHARGES


@<TRIPOS>ATOM
    1   C1         2.689066263     0.356109308     0.508766267     C.3   1  noname   -0.251814
    2   N2         1.368456608     0.601044857    -0.026310831     N.2   1  noname   -0.220810
    3   C3         0.433947120    -0.199282070     0.329169572     C.2   1  noname   -0.007487
    4   N4        -0.881492823    -0.048602668    -0.029649521   N.pl3   1  noname    0.014547
    5   C5        -1.266636731     1.008286162    -0.943362223     C.3   1  noname   -0.278334
    6   C6        -1.820064686    -1.133436625     0.151159711     C.3   1  noname   -0.274037
    7   H7         3.024888249     1.219719348     1.107331267       H   1  noname    0.117714
    8   H8         2.752796023    -0.547863111     1.151311352       H   1  noname    0.071401
    9   H9         3.415205443     0.241760250    -0.313114255       H   1  noname    0.118783
   10   H10        0.603896013    -1.075472347     0.986542805       H   1  noname    0.042607
   11   H11       -0.531923683     1.818731588    -0.872218375       H   1  noname    0.153464
   12   H12       -2.267179891     1.382263881    -0.676692649       H   1  noname    0.115664
   13   H13       -1.293824539     0.655581180    -1.991487317       H   1  noname    0.110290
   14   H14       -1.435883327    -1.839235756     0.900288586       H   1  noname    0.122923
   15   H15       -2.001364136    -1.691417319    -0.788082593       H   1  noname    0.114892
   16   H16       -2.789885902    -0.748186678     0.506348203       H   1  noname    0.125169


@<TRIPOS>BOND
    1      1      2    1
    2      2      3    2
    3      3      4    1
    4      4      5    1
    5      4      6    1
    6      1      7    1
    7      1      8    1
    8      1      9    1
    9      3     10    1
   10      5     11    1
   11      5     12    1
   12      5     13    1
   13      6     14    1
   14      6     15    1
   15      6     16    1
#
#	File Created by: Spartan'20 Export
#

@<TRIPOS>MOLECULE
M0283
10 9
SMALL
MULLIKEN_CHARGES


@<TRIPOS>ATOM
    1   C1         0.106828121     1.212357054     0.046347926     C.3   1  noname   -0.270686
    2   N2        -0.679015999     0.000001854     0.236942193     N.3   1  noname   -0.281269
    3   C3         0.106810953    -1.212340047     0.046253375     C.3   1  noname   -0.270698
    4   H4         0.873885216     1.277189051     0.834341019       H   1  noname    0.116756
    5   H5         0.633382439     1.266482555    -0.932370058       H   1  noname    0.090449
    6   H6        -0.541031201     2.095588241     0.139620042       H   1  noname    0.123406
    7   H7        -1.467049936     0.000011097    -0.412377082       H   1  noname    0.188576
    8   H8         0.874153431    -1.277032708     0.833971995       H   1  noname    0.116751
    9   H9        -0.540961017    -2.095600937     0.139929469       H   1  noname    0.123411
   10   H10        0.632997993    -1.266656159    -0.932658880       H   1  noname    0.090455


@<TRIPOS>BOND
    1      1      2    1
    2      2      3    1
    3      1      4    1
    4      1      5    1
    5      1      6    1
    6      2      7    1
    7      3      8    1
    8      3      9    1
    9      3     10    1
#
#	File Created by: Spartan'20 Export
#

@<TRIPOS>MOLECULE
M0284
19 19
SMALL
MULLIKEN_CHARGES


@<TRIPOS>ATOM
    1   C1         3.359486912    -0.599598479     0.498244841     C.3   1  noname   -0.273759
    2   N2         1.909994449    -0.556226192     0.492987119   N.pl3   1  noname   -0.212028
    3   C3         1.224637245     0.208016921    -0.413486344     C.2   1  noname    0.235108
    4   O4         1.795152025     0.855072946    -1.293788937     O.2   1  noname   -0.328726
    5   C5        -0.272738433     0.202678393    -0.274016557     C.2   1  noname    0.115862
    6   C6        -0.971839771     1.308356917    -0.777694497     C.2   1  noname   -0.146079
    7   C7        -2.360982671     1.367236014    -0.685239885     C.2   1  noname   -0.092659
    8   C8        -3.070665210     0.311412625    -0.105482647     C.2   1  noname   -0.075964
    9   C9        -2.384163558    -0.803774083     0.379803350     C.2   1  noname   -0.116923
   10   C10       -0.991626350    -0.857111891     0.299700429     C.2   1  noname   -0.169610
   11   H11        3.696573713    -1.529434761     0.974131658       H   1  noname    0.123884
   12   H12        3.717185997    -0.567356517    -0.537809880       H   1  noname    0.155386
   13   H13        3.799190967     0.258477332     1.033300893       H   1  noname    0.129113
   14   H14        1.409448494    -0.904509760     1.302839999       H   1  noname    0.212508
   15   H15       -0.397044118     2.109546258    -1.244487650       H   1  noname    0.139771
   16   H16       -2.895556687     2.237169024    -1.071323139       H   1  noname    0.115503
   17   H17       -4.159615799     0.352903169    -0.040608146       H   1  noname    0.114793
   18   H18       -2.935464875    -1.640859523     0.812253901       H   1  noname    0.112662
   19   H19       -0.471972329    -1.751998392     0.650675493       H   1  noname    0.106577


@<TRIPOS>BOND
    1      1      2    1
    2      2      3    1
    3      3      4    2
    4      3      5    1
    5      5      6    2
    6      6      7    1
    7      7      8    2
    8      8      9    1
    9      9     10    2
   10     10      5    1
   11      1     11    1
   12      1     12    1
   13      1     13    1
   14      2     14    1
   15      6     15    1
   16      7     16    1
   17      8     17    1
   18      9     18    1
   19     10     19    1
#
#	File Created by: Spartan'20 Export
#

@<TRIPOS>MOLECULE
M0285
9 8
SMALL
MULLIKEN_CHARGES


@<TRIPOS>ATOM
    1   C1        -1.116626513    -0.134798614     0.059911320     C.3   1  noname   -0.262917
    2   N2         0.281649607    -0.440512475    -0.181016249   N.pl3   1  noname   -0.200744
    3   C3         1.289428982     0.452537572     0.033665856     C.2   1  noname    0.143109
    4   O4         1.149653787     1.596812637     0.442082293     O.2   1  noname   -0.313263
    5   H5        -1.538719628    -0.782623659     0.843168094       H   1  noname    0.128689
    6   H6        -1.175091930     0.908550395     0.392596310       H   1  noname    0.162358
    7   H7        -1.711794204    -0.251004887    -0.858106920       H   1  noname    0.128540
    8   H8         0.535839195    -1.362830937    -0.519326684       H   1  noname    0.211793
    9   H9         2.285660703     0.013869968    -0.212974021       H   1  noname    0.056931


@<TRIPOS>BOND
    1      1      2    1
    2      2      3    1
    3      3      4    2
    4      1      5    1
    5      1      6    1
    6      1      7    1
    7      2      8    1
    8      3      9    1
#
#	File Created by: Spartan'20 Export
#

@<TRIPOS>MOLECULE
M0286
12 11
SMALL
MULLIKEN_CHARGES


@<TRIPOS>ATOM
    1   C1        -1.333162266     0.633170458     0.559197606     C.3   1  noname   -0.283075
    2   N2        -0.810881817    -0.707928114     0.313686747     N.3   1  noname   -0.257728
    3   C3         0.256660382    -0.737305542    -0.690259770     C.3   1  noname   -0.191630
    4   C4         1.489338792    -0.113709613    -0.210435902     C.1   1  noname   -0.001849
    5   C5         2.509668208     0.415988511     0.170729843     C.1   1  noname   -0.139954
    6   H6        -0.541179146     1.253859779     1.002643622       H   1  noname    0.139560
    7   H7        -1.698026461     1.153456039    -0.353026879       H   1  noname    0.090775
    8   H8        -2.159653505     0.575205302     1.280633246       H   1  noname    0.125726
    9   H9        -1.563830722    -1.319605713    -0.005376273       H   1  noname    0.186502
   10   H10        0.466407321    -1.791919050    -0.934922552       H   1  noname    0.127467
   11   H11       -0.028553974    -0.238463099    -1.645709803       H   1  noname    0.109459
   12   H12        3.413213187     0.877251043     0.512840115       H   1  noname    0.156087


@<TRIPOS>BOND
    1      1      2    1
    2      2      3    1
    3      3      4    1
    4      4      5    3
    5      1      6    1
    6      1      7    1
    7      1      8    1
    8      2      9    1
    9      3     10    1
   10      3     11    1
   11      5     12    1
#
#	File Created by: Spartan'20 Export
#

@<TRIPOS>MOLECULE
M0287
11 10
SMALL
MULLIKEN_CHARGES


@<TRIPOS>ATOM
    1   C1        -1.555123346    -0.089328371    -0.128184214     C.3   1  noname   -0.285109
    2   N2        -0.182329436    -0.433445757    -0.485695082     N.3   1  noname   -0.262937
    3   C3         0.787055505     0.399047140     0.220333315     C.3   1  noname   -0.020595
    4   C4         2.161100028     0.002390798    -0.088418230     C.1   1  noname   -0.253700
    5   N5         3.251902751    -0.329683978    -0.314014875     N.1   1  noname    0.061473
    6   H6        -1.783050388     0.925896303    -0.488249605       H   1  noname    0.125394
    7   H7        -2.243087085    -0.782659683    -0.629600528       H   1  noname    0.138102
    8   H8        -1.762190296    -0.115717878     0.962771631       H   1  noname    0.103586
    9   H9         0.002174325    -1.416987922    -0.279876452       H   1  noname    0.201162
   10   H10        0.650722455     1.447384124    -0.098041015       H   1  noname    0.135471
   11   H11        0.672825486     0.393105223     1.328975055       H   1  noname    0.119189


@<TRIPOS>BOND
    1      1      2    1
    2      2      3    1
    3      3      4    1
    4      4      5    3
    5      1      6    1
    6      1      7    1
    7      1      8    1
    8      2      9    1
    9      3     10    1
   10      3     11    1
#
#	File Created by: Spartan'20 Export
#

@<TRIPOS>MOLECULE
M0288
14 13
SMALL
MULLIKEN_CHARGES


@<TRIPOS>ATOM
    1   C1        -1.979356864     0.733161216    -0.236146119     C.3   1  noname   -0.277414
    2   N2        -0.541306243     0.632398047    -0.026545394     N.3   1  noname   -0.280941
    3   C3        -0.049741303    -0.732769584    -0.115442450     C.3   1  noname   -0.045385
    4   C4         1.430597990    -0.858168488     0.099615450     C.2   1  noname   -0.127564
    5   C5         2.292475921     0.157435722     0.202369294     C.2   1  noname   -0.260967
    6   H6        -2.585893079     0.081078267     0.429996568       H   1  noname    0.092576
    7   H7        -2.302647695     1.772909835    -0.086830590       H   1  noname    0.126158
    8   H8        -2.219162200     0.456118137    -1.274797057       H   1  noname    0.119708
    9   H9        -0.293089835     1.015984223     0.888100209       H   1  noname    0.191503
   10   H10       -0.298677861    -1.118292572    -1.123223537       H   1  noname    0.102422
   11   H11       -0.567731005    -1.427076276     0.589919154       H   1  noname    0.078242
   12   H12        1.796234918    -1.887513204     0.181096403       H   1  noname    0.100554
   13   H13        3.356284894    -0.018430350     0.366811597       H   1  noname    0.113436
   14   H14        1.962012362     1.193165027     0.105076474       H   1  noname    0.120483


@<TRIPOS>BOND
    1      1      2    1
    2      2      3    1
    3      3      4    1
    4      4      5    2
    5      1      6    1
    6      1      7    1
    7      1      8    1
    8      2      9    1
    9      3     10    1
   10      3     11    1
   11      4     12    1
   12      5     13    1
   13      5     14    1
#
#	File Created by: Spartan'20 Export
#

@<TRIPOS>MOLECULE
M0289
14 13
SMALL
MULLIKEN_CHARGES


@<TRIPOS>ATOM
    1   C1        -1.928582847     0.195885295     0.023812218     C.3   1  noname   -0.298252
    2   N2        -0.821862256     0.771470072     0.779510739     N.3   1  noname   -0.237662
    3   C3         0.476327270     0.699551695     0.138066048     C.3   1  noname   -0.170693
    4   C4         1.018070223    -0.738935371    -0.122504309     C.3   1  noname   -0.067821
    5   C5         2.337959722    -0.720899104    -0.734904595     C.1   1  noname   -0.284329
    6   N6         3.392767154    -0.652744861    -1.221967881     N.1   1  noname    0.053872
    7   H7        -2.870007030     0.384539473     0.558631266       H   1  noname    0.135347
    8   H8        -1.995953663     0.699876489    -0.952812163       H   1  noname    0.126948
    9   H9        -1.862784773    -0.895636395    -0.166867433       H   1  noname    0.105482
   10   H10       -0.780031201     0.371785152     1.718608398       H   1  noname    0.189317
   11   H11        1.208250828     1.240785192     0.756428945       H   1  noname    0.135362
   12   H12        0.417930721     1.231936702    -0.824406798       H   1  noname    0.121102
   13   H13        0.333829214    -1.296138379    -0.781828103       H   1  noname    0.139408
   14   H14        1.074086638    -1.291475958     0.830233666       H   1  noname    0.123253


@<TRIPOS>BOND
    1      1      2    1
    2      2      3    1
    3      3      4    1
    4      4      5    1
    5      5      6    3
    6      1      7    1
    7      1      8    1
    8      1      9    1
    9      2     10    1
   10      3     11    1
   11      3     12    1
   12      4     13    1
   13      4     14    1
#
#	File Created by: Spartan'20 Export
#

@<TRIPOS>MOLECULE
M0290
20 20
SMALL
MULLIKEN_CHARGES


@<TRIPOS>ATOM
    1   C1         3.335264732     0.245170329    -0.216896577     C.3   1  noname   -0.278912
    2   N2         1.910230174     0.541989678    -0.168808542     N.3   1  noname   -0.267696
    3   C3         1.076272132    -0.653394615    -0.059985265     C.3   1  noname   -0.104857
    4   C4        -0.391269516    -0.304097798     0.009032783     C.2   1  noname    0.124783
    5   C5        -0.962031598     0.539354006    -0.956266189     C.2   1  noname   -0.151068
    6   C6        -2.319694713     0.853406823    -0.910593073     C.2   1  noname   -0.100210
    7   C7        -3.129141355     0.330851358     0.102912590     C.2   1  noname   -0.083353
    8   C8        -2.569971583    -0.504168839     1.071506530     C.2   1  noname   -0.114185
    9   C9        -1.208419511    -0.815989313     1.023304382     C.2   1  noname   -0.151116
   10   H10        3.567068807    -0.297369054    -1.147250806       H   1  noname    0.118485
   11   H11        3.905749358     1.184241186    -0.228056920       H   1  noname    0.126760
   12   H12        3.702360244    -0.375114160     0.629683707       H   1  noname    0.092197
   13   H13        1.704556047     1.164629457     0.615727819       H   1  noname    0.183237
   14   H14        1.268326508    -1.269838761    -0.958026248       H   1  noname    0.101441
   15   H15        1.340700725    -1.292643765     0.812444751       H   1  noname    0.077191
   16   H16       -0.320751037     0.952798891    -1.737172743       H   1  noname    0.115637
   17   H17       -2.752056294     1.506992602    -1.671108540       H   1  noname    0.108336
   18   H18       -4.192542485     0.575629045     0.137191701       H   1  noname    0.107954
   19   H19       -3.193286866    -0.912683750     1.869472877       H   1  noname    0.107676
   20   H20       -0.771363767    -1.469763322     1.782887764       H   1  noname    0.104003


@<TRIPOS>BOND
    1      1      2    1
    2      2      3    1
    3      3      4    1
    4      4      5    2
    5      5      6    1
    6      6      7    2
    7      7      8    1
    8      8      9    2
    9      9      4    1
   10      1     10    1
   11      1     11    1
   12      1     12    1
   13      2     13    1
   14      3     14    1
   15      3     15    1
   16      5     16    1
   17      6     17    1
   18      7     18    1
   19      8     19    1
   20      9     20    1
#
#	File Created by: Spartan'20 Export
#

@<TRIPOS>MOLECULE
M0291
16 16
SMALL
MULLIKEN_CHARGES


@<TRIPOS>ATOM
    1   C1        -2.606190368     0.006667086     0.096566341     C.3   1  noname   -0.290544
    2   N2        -1.450434637     0.832802306     0.351845653     N.3   1  noname   -0.196907
    3   C3        -0.156194158     0.421216599     0.168189553     C.2   1  noname    0.223846
    4   C4         0.165189626    -0.790028295    -0.487949977     C.2   1  noname   -0.191870
    5   C5         1.506912156    -1.109677133    -0.655339119     C.2   1  noname   -0.100624
    6   C6         2.492998301    -0.242807855    -0.174613995     C.2   1  noname   -0.095211
    7   C7         2.069294901     0.922373644     0.467001427     C.2   1  noname   -0.066934
    8   N8         0.789045740     1.260975627     0.644343234     N.2   1  noname   -0.189498
    9   H9        -3.509119335     0.562412251     0.376752639       H   1  noname    0.134661
   10   H10       -2.590218881    -0.938306588     0.670698652       H   1  noname    0.129403
   11   H11       -2.691380280    -0.247875574    -0.973338681       H   1  noname    0.133009
   12   H12       -1.542314407     1.648736747     0.947625620       H   1  noname    0.210182
   13   H13       -0.617695971    -1.454642275    -0.852447315       H   1  noname    0.106438
   14   H14        1.782699620    -2.038286337    -1.159586884       H   1  noname    0.105783
   15   H15        3.554275190    -0.463351889    -0.287161036       H   1  noname    0.103866
   16   H16        2.803132504     1.629791686     0.867413888       H   1  noname    0.101586


@<TRIPOS>BOND
    1      1      2    1
    2      2      3    1
    3      3      4    2
    4      4      5    1
    5      5      6    2
    6      6      7    1
    7      7      8    2
    8      8      3    1
    9      1      9    1
   10      1     10    1
   11      1     11    1
   12      2     12    1
   13      4     13    1
   14      5     14    1
   15      6     15    1
   16      7     16    1
#
#	File Created by: Spartan'20 Export
#

@<TRIPOS>MOLECULE
M0292
6 5
SMALL
MULLIKEN_CHARGES


@<TRIPOS>ATOM
    1   C1        -0.123256993     0.000016865    -0.337575882     C.3   1  noname   -0.197098
    2   O2        -0.196986921     0.000064999     1.087744574     O.3   1  noname   -0.423242
    3   H3         0.383161650    -0.898454488    -0.736482625       H   1  noname    0.106742
    4   H4        -1.157450180    -0.000024346    -0.706778707       H   1  noname    0.126161
    5   H5         0.383119381     0.898484310    -0.736551984       H   1  noname    0.106740
    6   H6         0.711413062    -0.000087341     1.429644625       H   1  noname    0.297100


@<TRIPOS>BOND
    1      1      2    1
    2      1      3    1
    3      1      4    1
    4      1      5    1
    5      2      6    1
#
#	File Created by: Spartan'20 Export
#

@<TRIPOS>MOLECULE
M0293
11 10
SMALL
MULLIKEN_CHARGES


@<TRIPOS>ATOM
    1   C1         0.226462203    -0.001218442     1.917332691     C.3   1  noname   -0.219228
    2   O2         0.585719006     0.001333561     0.515067543     O.3   1  noname   -0.154842
    3   C3        -0.456427800     0.003307686    -0.324704615     C.2   1  noname    0.195117
    4   O4        -1.622712839     0.006128580    -0.015341652     O.2   1  noname   -0.223808
    5   C5         0.050146688     0.000066314    -1.804794963     C.3   1  noname    0.201227
    6   Cl6       -1.328287911    -0.003277630    -2.913509181      Cl   1  noname   -0.018569
    7   Cl7        1.044126721     1.470697340    -2.075896886      Cl   1  noname   -0.047916
    8   Cl8        1.045455873    -1.470884923    -2.069816918      Cl   1  noname   -0.047979
    9   H9        -0.359560716    -0.898618916     2.155794513       H   1  noname    0.144379
   10   H10       -0.363093377     0.892953826     2.158853773       H   1  noname    0.144550
   11   H11        1.178172153    -0.000487396     2.457015695       H   1  noname    0.145103


@<TRIPOS>BOND
    1      1      2    1
    2      2      3    1
    3      3      4    2
    4      3      5    1
    5      5      6    1
    6      5      7    1
    7      5      8    1
    8      1      9    1
    9      1     10    1
   10      1     11    1
#
#	File Created by: Spartan'20 Export
#

@<TRIPOS>MOLECULE
M0294
12 11
SMALL
MULLIKEN_CHARGES


@<TRIPOS>ATOM
    1   C1        -2.339046619     0.000021256    -0.078127633     C.3   1  noname   -0.207999
    2   O2        -1.086442980     0.000024316    -0.791406168     O.3   1  noname   -0.182483
    3   C3         0.000417019    -0.000028530     0.007855557     C.2   1  noname    0.379248
    4   O4         0.000653343    -0.000092967     1.222815497     O.2   1  noname   -0.313069
    5   O5         1.086745543     0.000005872    -0.791886420     O.3   1  noname   -0.182407
    6   C6         2.339058025     0.000002332    -0.078236801     C.3   1  noname   -0.207973
    7   H7        -2.425729741     0.894589982     0.553991838       H   1  noname    0.134515
    8   H8        -2.425660066    -0.894458494     0.554127740       H   1  noname    0.134522
    9   H9        -3.112158198    -0.000073879    -0.853680722       H   1  noname    0.136359
   10   H10        3.112321584     0.000047047    -0.853539248       H   1  noname    0.136323
   11   H11        2.424939059    -0.894534494     0.554011245       H   1  noname    0.134535
   12   H12        2.424903031     0.894497559     0.554075117       H   1  noname    0.134534


@<TRIPOS>BOND
    1      1      2    1
    2      2      3    1
    3      3      4    2
    4      3      5    1
    5      5      6    1
    6      1      7    1
    7      1      8    1
    8      1      9    1
    9      6     10    1
   10      6     11    1
   11      6     12    1
#
#	File Created by: Spartan'20 Export
#

@<TRIPOS>MOLECULE
M0295
17 17
SMALL
MULLIKEN_CHARGES


@<TRIPOS>ATOM
    1   C1        -0.536634166     0.000137505    -3.278119742     C.3   1  noname   -0.223070
    2   O2        -0.727110559     0.000087364    -1.848952297     O.3   1  noname   -0.172385
    3   C3         0.418105073    -0.000182614    -1.119265452     C.2   1  noname    0.281607
    4   O4         1.532419680    -0.000406337    -1.611004821     O.2   1  noname   -0.282267
    5   C5         0.143642564    -0.000130247     0.345870965     C.2   1  noname    0.106014
    6   C6         1.227229031    -0.000019888     1.232929685     C.2   1  noname   -0.160829
    7   C7         0.969687827     0.000093937     2.599454332     C.2   1  noname   -0.038546
    8   C8        -0.361125342     0.000076907     3.027307700     C.2   1  noname   -0.047732
    9   N9        -1.413778731    -0.000060860     2.194757035     N.2   1  noname   -0.126043
   10   C10       -1.153957950    -0.000159153     0.881855981     C.2   1  noname   -0.102990
   11   H11        0.018771142    -0.893570818    -3.593760532       H   1  noname    0.137148
   12   H12       -1.544711634     0.000146915    -3.705569467       H   1  noname    0.135917
   13   H13        0.018753442     0.893883595    -3.593688319       H   1  noname    0.137137
   14   H14        2.242011029    -0.000008393     0.831544077       H   1  noname    0.142350
   15   H15        1.782868826     0.000202836     3.326667720       H   1  noname    0.117736
   16   H16       -0.597557377     0.000180815     4.096075899       H   1  noname    0.118279
   17   H17       -2.018612854    -0.000271563     0.213897236       H   1  noname    0.132524


@<TRIPOS>BOND
    1      1      2    1
    2      2      3    1
    3      3      4    2
    4      3      5    1
    5      5      6    2
    6      6      7    1
    7      7      8    2
    8      8      9    1
    9      9     10    2
   10     10      5    1
   11      1     11    1
   12      1     12    1
   13      1     13    1
   14      6     14    1
   15      7     15    1
   16      8     16    1
   17     10     17    1
#
#	File Created by: Spartan'20 Export
#

@<TRIPOS>MOLECULE
M0296
9 8
SMALL
MULLIKEN_CHARGES


@<TRIPOS>ATOM
    1   C1        -1.171915944    -0.456740796    -0.005814304     C.3   1  noname   -0.227393
    2   O2        -0.125751144     0.147176428    -0.785973085     O.3   1  noname   -0.157395
    3   C3         0.969204985     0.500147703    -0.054589246     C.3   1  noname    0.118888
    4   Cl4        1.988344220     1.556259302    -1.057696432      Cl   1  noname   -0.063037
    5   Cl5        1.940186813    -0.962766083     0.501572040      Cl   1  noname   -0.138903
    6   H6        -0.836629060    -1.418126089     0.412099247       H   1  noname    0.141678
    7   H7        -1.487362218     0.214285785     0.811246680       H   1  noname    0.119829
    8   H8        -2.005801892    -0.616315585    -0.697335852       H   1  noname    0.146092
    9   H9         0.729724241     1.036079335     0.876490954       H   1  noname    0.122707


@<TRIPOS>BOND
    1      1      2    1
    2      2      3    1
    3      3      4    1
    4      3      5    1
    5      1      6    1
    6      1      7    1
    7      1      8    1
    8      3      9    1
#
#	File Created by: Spartan'20 Export
#

@<TRIPOS>MOLECULE
M0297
21 20
SMALL
MULLIKEN_CHARGES


@<TRIPOS>ATOM
    1   C1         0.128467867     1.783675113     1.581969015     C.3   1  noname   -0.219639
    2   O2         0.824332890     0.827763360     0.771153886     O.3   1  noname   -0.238379
    3   C3         0.000108082     0.000078642     0.000343095     C.3   1  noname    0.454758
    4   O4         0.827839933    -0.824138313    -0.770382529     O.3   1  noname   -0.238365
    5   C5         1.782938420    -0.128318632    -1.582113053     C.3   1  noname   -0.219685
    6   O6        -0.827662046     0.824308313    -0.770320987     O.3   1  noname   -0.238400
    7   C7        -1.782917979     0.128348654    -1.581817944     C.3   1  noname   -0.219691
    8   O8        -0.824162060    -0.827822552     0.770776346     O.3   1  noname   -0.238349
    9   C9        -0.128547049    -1.783717585     1.581796558     C.3   1  noname   -0.219646
   10   H10       -0.680338100     1.301365538     2.152178165       H   1  noname    0.123147
   11   H11        0.876437669     2.189750899     2.273998758       H   1  noname    0.128316
   12   H12       -0.291898327     2.593052662     0.967511975       H   1  noname    0.127271
   13   H13        2.592231193     0.293143645    -0.968331843       H   1  noname    0.127281
   14   H14        2.189280857    -0.876655288    -2.273605967       H   1  noname    0.128323
   15   H15        1.299927903     0.679612649    -2.152980339       H   1  noname    0.123155
   16   H16       -2.592120344    -0.293221756    -0.967972020       H   1  noname    0.127291
   17   H17       -1.299940552    -0.679603852    -2.152678258       H   1  noname    0.123164
   18   H18       -2.189467297     0.876511816    -2.273382512       H   1  noname    0.128321
   19   H19        0.292526745    -2.593083456     0.967817944       H   1  noname    0.127253
   20   H20        0.679671042    -1.301064246     2.152487457       H   1  noname    0.123149
   21   H21       -0.876708846    -2.189985611     2.273552254       H   1  noname    0.128314


@<TRIPOS>BOND
    1      1      2    1
    2      2      3    1
    3      3      4    1
    4      4      5    1
    5      3      6    1
    6      6      7    1
    7      3      8    1
    8      8      9    1
    9      1     10    1
   10      1     11    1
   11      1     12    1
   12      5     13    1
   13      5     14    1
   14      5     15    1
   15      7     16    1
   16      7     17    1
   17      7     18    1
   18      9     19    1
   19      9     20    1
   20      9     21    1
#
#	File Created by: Spartan'20 Export
#

@<TRIPOS>MOLECULE
M0298
17 16
SMALL
MULLIKEN_CHARGES


@<TRIPOS>ATOM
    1   C1         1.863983777    -1.445477915    -0.026579357     C.3   1  noname   -0.211393
    2   O2         0.595578157    -1.165989829    -0.618965206     O.3   1  noname   -0.208372
    3   C3         0.002517234     0.001803447    -0.137276190     C.3   1  noname    0.249416
    4   O4        -1.307244963     0.072435867    -0.614499704     O.3   1  noname   -0.208100
    5   C5        -2.178165377    -0.894078714    -0.027627972     C.3   1  noname   -0.210751
    6   O6         0.716366783     1.101516518    -0.615834100     O.3   1  noname   -0.208591
    7   C7         0.312613667     2.338550738    -0.029319259     C.3   1  noname   -0.211919
    8   H8         1.792884530    -1.473445388     1.077185604       H   1  noname    0.096983
    9   H9         2.166990408    -2.434623622    -0.390559279       H   1  noname    0.133270
   10   H10        2.617668812    -0.697515045    -0.318747216       H   1  noname    0.132202
   11   H11        0.004351399    -0.000364823     0.986363864       H   1  noname    0.023366
   12   H12       -1.907449497    -1.917282053    -0.331847614       H   1  noname    0.132039
   13   H13       -2.160321662    -0.829491888     1.076618360       H   1  noname    0.096787
   14   H14       -3.188566677    -0.659391251    -0.383726217       H   1  noname    0.133116
   15   H15       -0.712407363     2.609188975    -0.327566654       H   1  noname    0.132616
   16   H16        0.367004316     2.294874453     1.074768486       H   1  noname    0.096986
   17   H17        1.014196458     3.099290533    -0.392387548       H   1  noname    0.133147


@<TRIPOS>BOND
    1      1      2    1
    2      2      3    1
    3      3      4    1
    4      4      5    1
    5      3      6    1
    6      6      7    1
    7      1      8    1
    8      1      9    1
    9      1     10    1
   10      3     11    1
   11      5     12    1
   12      5     13    1
   13      5     14    1
   14      7     15    1
   15      7     16    1
   16      7     17    1
#
#	File Created by: Spartan'20 Export
#

@<TRIPOS>MOLECULE
M0299
17 16
SMALL
MULLIKEN_CHARGES


@<TRIPOS>ATOM
    1   C1         2.609450788     0.902361110    -0.296090859     C.3   1  noname   -0.212035
    2   O2         1.241346482     0.624932324    -0.529263228     O.3   1  noname   -0.236563
    3   C3         0.846512359    -0.627168444     0.023547474     C.3   1  noname   -0.059217
    4   C4        -0.632199800    -0.847734613    -0.242254792     C.3   1  noname   -0.116659
    5   C5        -1.533339642     0.163468574     0.462815745     C.3   1  noname   -0.129823
    6   N6        -2.947522312    -0.163564563     0.225185841     N.3   1  noname   -0.463521
    7   H7         2.830545963     1.872667028    -0.759814218       H   1  noname    0.129904
    8   H8         3.266258868     0.131105126    -0.745347724       H   1  noname    0.101867
    9   H9         2.835784159     0.960423055     0.786818525       H   1  noname    0.101999
   10   H10        1.446689905    -1.443994159    -0.427767685       H   1  noname    0.089666
   11   H11        1.048787872    -0.638039439     1.116556145       H   1  noname    0.077554
   12   H12       -0.909291902    -1.863039609     0.084780873       H   1  noname    0.099738
   13   H13       -0.803920236    -0.804977070    -1.332105773       H   1  noname    0.082330
   14   H14       -1.352985372     0.102712502     1.550102658       H   1  noname    0.084183
   15   H15       -1.241485505     1.183759450     0.148098818       H   1  noname    0.104744
   16   H16       -3.546654800     0.510768211     0.706437048       H   1  noname    0.206709
   17   H17       -3.157976827    -0.063679483    -0.771698849       H   1  noname    0.205652


@<TRIPOS>BOND
    1      1      2    1
    2      2      3    1
    3      3      4    1
    4      4      5    1
    5      5      6    1
    6      1      7    1
    7      1      8    1
    8      1      9    1
    9      3     10    1
   10      3     11    1
   11      4     12    1
   12      4     13    1
   13      5     14    1
   14      5     15    1
   15      6     16    1
   16      6     17    1
#
#	File Created by: Spartan'20 Export
#

@<TRIPOS>MOLECULE
M0300
14 13
SMALL
MULLIKEN_CHARGES


@<TRIPOS>ATOM
    1   C1         2.369690840     0.097993978    -0.243961369     C.3   1  noname   -0.208823
    2   O2         1.193945996     0.058511775     0.543339880     O.3   1  noname   -0.234593
    3   C3         0.016597508     0.067792556    -0.250067401     C.3   1  noname   -0.041172
    4   C4        -1.191105896     0.014685843     0.674784687     C.3   1  noname   -0.068001
    5   N5        -2.421132771    -0.006019985    -0.125229210     N.3   1  noname   -0.485970
    6   H6         3.224519231     0.093588747     0.445025462       H   1  noname    0.129650
    7   H7         2.415074841     1.011893647    -0.868182403       H   1  noname    0.104424
    8   H8         2.443160014    -0.781976522    -0.913377171       H   1  noname    0.102339
    9   H9        -0.034101676     0.978099086    -0.880221011       H   1  noname    0.087400
   10   H10        0.009225222    -0.806987759    -0.937475644       H   1  noname    0.062891
   11   H11       -1.195206555     0.924182576     1.295381019       H   1  noname    0.097701
   12   H12       -1.067028963    -0.845543743     1.362277772       H   1  noname    0.089810
   13   H13       -2.528065539    -0.914862010    -0.581766197       H   1  noname    0.207331
   14   H14       -3.235572251     0.108641811     0.479471587       H   1  noname    0.213501


@<TRIPOS>BOND
    1      1      2    1
    2      2      3    1
    3      3      4    1
    4      4      5    1
    5      1      6    1
    6      1      7    1
    7      1      8    1
    8      3      9    1
    9      3     10    1
   10      4     11    1
   11      4     12    1
   12      5     13    1
   13      5     14    1
#
#	File Created by: Spartan'20 Export
#

@<TRIPOS>MOLECULE
M0301
16 15
SMALL
MULLIKEN_CHARGES


@<TRIPOS>ATOM
    1   C1         0.122214597    -0.000066867    -2.981549424     C.3   1  noname   -0.210913
    2   O2        -0.527652486     0.000049973    -1.722833554     O.3   1  noname   -0.236417
    3   C3         0.397447882     0.000080507    -0.647245694     C.3   1  noname   -0.019818
    4   C4        -0.396905041     0.000204135     0.647338193     C.3   1  noname   -0.019876
    5   O5         0.527871955     0.000116465     1.723174498     O.3   1  noname   -0.236422
    6   C6        -0.122528075    -0.000114573     2.981630521     C.3   1  noname   -0.210883
    7   H7         0.757933510     0.897521439    -3.111952077       H   1  noname    0.105253
    8   H8        -0.659382832    -0.000294995    -3.752377095       H   1  noname    0.130986
    9   H9         0.758141454    -0.897548006    -3.111668915       H   1  noname    0.105248
   10   H10        1.052063562     0.894336820    -0.686082184       H   1  noname    0.081511
   11   H11        1.051934717    -0.894279307    -0.685944929       H   1  noname    0.081512
   12   H12       -1.051594259    -0.894023073     0.685845776       H   1  noname    0.081510
   13   H13       -1.051411760     0.894563156     0.685828878       H   1  noname    0.081515
   14   H14       -0.758538354     0.897319782     3.111638546       H   1  noname    0.105251
   15   H15        0.658728405    -0.000124793     3.752786006       H   1  noname    0.130988
   16   H16       -0.758323275    -0.897740662     3.111411454       H   1  noname    0.105253


@<TRIPOS>BOND
    1      1      2    1
    2      2      3    1
    3      3      4    1
    4      4      5    1
    5      5      6    1
    6      1      7    1
    7      1      8    1
    8      1      9    1
    9      3     10    1
   10      3     11    1
   11      4     12    1
   12      4     13    1
   13      6     14    1
   14      6     15    1
   15      6     16    1
#
#	File Created by: Spartan'20 Export
#

@<TRIPOS>MOLECULE
M0302
13 12
SMALL
MULLIKEN_CHARGES


@<TRIPOS>ATOM
    1   C1         0.298163875     2.087350704    -0.062684146     C.3   1  noname   -0.206024
    2   O2        -0.410431724     1.288705493     0.887184566     O.3   1  noname   -0.224492
    3   C3        -0.662369239     0.000064849     0.440468651     C.3   1  noname    0.058317
    4   O4         0.556218090    -0.728253939     0.338508926     O.3   1  noname   -0.228697
    5   C5         0.352115477    -2.014885659    -0.220528510     C.3   1  noname   -0.212172
    6   H6         0.339487948     3.102496046     0.350468150       H   1  noname    0.131820
    7   H7        -0.232969023     2.110400160    -1.032995003       H   1  noname    0.096884
    8   H8         1.320377541     1.710764656    -0.221853058       H   1  noname    0.132531
    9   H9        -1.164104337     0.005333252    -0.557838978       H   1  noname    0.067432
   10   H10       -1.330758767    -0.468815428     1.188193997       H   1  noname    0.104697
   11   H11       -0.074812310    -1.956200689    -1.241003378       H   1  noname    0.103613
   12   H12       -0.323472031    -2.632311940     0.403254626       H   1  noname    0.106089
   13   H13        1.332554500    -2.504647505    -0.271175842       H   1  noname    0.134729


@<TRIPOS>BOND
    1      1      2    1
    2      2      3    1
    3      3      4    1
    4      4      5    1
    5      1      6    1
    6      1      7    1
    7      1      8    1
    8      3      9    1
    9      3     10    1
   10      5     11    1
   11      5     12    1
   12      5     13    1
#
#	File Created by: Spartan'20 Export
#

@<TRIPOS>MOLECULE
M0303
12 11
SMALL
MULLIKEN_CHARGES


@<TRIPOS>ATOM
    1   C1        -2.161198624     0.405727649     0.209339242     C.3   1  noname   -0.240080
    2   O2        -1.356772242     0.319727766    -0.987038286     O.3   1  noname   -0.186918
    3   S3        -0.063074050    -0.694302551    -0.876535998       S   1  noname    0.615208
    4   O4         0.538645211    -0.666926382    -2.205260010     O.2   1  noname   -0.345922
    5   O5         0.801936893     0.351586334     0.112908035     O.3   1  noname   -0.214880
    6   C6         2.095004030    -0.168151763     0.482460585     C.3   1  noname   -0.246316
    7   H7        -3.122392197     0.828305935    -0.105899263       H   1  noname    0.142929
    8   H8        -2.329554737    -0.589402078     0.652270762       H   1  noname    0.121486
    9   H9        -1.680947183     1.063744020     0.947133004       H   1  noname    0.140160
   10   H10        2.015673738    -1.174362081     0.927826106       H   1  noname    0.119620
   11   H11        2.766219129    -0.200911192    -0.388455492       H   1  noname    0.143093
   12   H12        2.496460031     0.524964343     1.231251318       H   1  noname    0.139147


@<TRIPOS>BOND
    1      1      2    1
    2      2      3    1
    3      3      4    2
    4      3      5    1
    5      5      6    1
    6      1      7    1
    7      1      8    1
    8      1      9    1
    9      6     10    1
   10      6     11    1
   11      6     12    1
#
#	File Created by: Spartan'20 Export
#

@<TRIPOS>MOLECULE
M0304
17 17
SMALL
MULLIKEN_CHARGES


@<TRIPOS>ATOM
    1   C1         0.442253807     0.000127999    -2.971509970     C.3   1  noname   -0.237965
    2   O2        -0.661169358    -0.000120998    -2.063833891     O.3   1  noname   -0.174124
    3   C3        -0.392704034    -0.000141851    -0.732230438     C.2   1  noname    0.271795
    4   C4         0.897571573    -0.000199872    -0.178105203     C.2   1  noname   -0.186651
    5   C5         1.055393260    -0.000124059     1.206355406     C.2   1  noname   -0.186980
    6   C6        -0.060960066    -0.000001413     2.057599987     C.2   1  noname    0.257903
    7   C7        -1.352881170    -0.000011163     1.490757517     C.2   1  noname   -0.151240
    8   C8        -1.515169484    -0.000089565     0.115435994     C.2   1  noname   -0.145265
    9   C9         0.107503133     0.000155600     3.473384819     C.1   1  noname   -0.296246
   10   N10        0.242808043     0.000303654     4.632655751     N.1   1  noname    0.066010
   11   H11       -0.000214736     0.000142898    -3.973807529       H   1  noname    0.148578
   12   H12        1.066194948    -0.900208204    -2.844734673       H   1  noname    0.134077
   13   H13        1.065913811     0.900636987    -2.844562670       H   1  noname    0.134086
   14   H14        1.781736985    -0.000312202    -0.814223837       H   1  noname    0.124462
   15   H15        2.057648701    -0.000145724     1.636293621       H   1  noname    0.132536
   16   H16       -2.225242530     0.000067807     2.145208275       H   1  noname    0.135708
   17   H17       -2.508682882    -0.000079894    -0.334683158       H   1  noname    0.123893


@<TRIPOS>BOND
    1      1      2    1
    2      2      3    1
    3      3      4    2
    4      4      5    1
    5      5      6    2
    6      6      7    1
    7      7      8    2
    8      6      9    1
    9      9     10    3
   10      8      3    1
   11      1     11    1
   12      1     12    1
   13      1     13    1
   14      4     14    1
   15      5     15    1
   16      7     16    1
   17      8     17    1
#
#	File Created by: Spartan'20 Export
#

@<TRIPOS>MOLECULE
M0305
32 33
SMALL
MULLIKEN_CHARGES


@<TRIPOS>ATOM
    1   C1         6.171353795     0.259870904    -0.589373104     C.3   1  noname   -0.234470
    2   O2         4.990081154    -0.250065403    -1.206104058     O.3   1  noname   -0.177797
    3   C3         3.818757044    -0.146944377    -0.518928386     C.2   1  noname    0.271674
    4   C4         3.687635718     0.436537630     0.752760251     C.2   1  noname   -0.187406
    5   C5         2.437526798     0.472706688     1.362759626     C.2   1  noname   -0.165422
    6   C6         1.294188531    -0.031928017     0.726518840     C.2   1  noname    0.117974
    7   C7         1.444322660    -0.614525132    -0.546749314     C.2   1  noname   -0.184839
    8   C8         2.687547481    -0.679973809    -1.159367066     C.2   1  noname   -0.155015
    9   C9         0.000517430     0.000692794     1.471312862     C.2   1  noname    0.151818
   10   O10       -0.001074682     0.001883989     2.705663104     O.2   1  noname   -0.281883
   11   C11       -1.292145573     0.031396857     0.723907336     C.2   1  noname    0.117566
   12   C12       -1.443594653     0.613730140    -0.549528098     C.2   1  noname   -0.185355
   13   C13       -2.687295222     0.678300082    -1.161663401     C.2   1  noname   -0.154551
   14   C14       -3.817798266     0.144677261    -0.520830701     C.2   1  noname    0.271247
   15   C15       -3.685636558    -0.439051704     0.750400251     C.2   1  noname   -0.187512
   16   C16       -2.435298234    -0.474335532     1.359877801     C.2   1  noname   -0.164767
   17   O17       -4.990237490     0.248174657    -1.206661718     O.3   1  noname   -0.177959
   18   C18       -6.172690669    -0.257353244    -0.588101264     C.3   1  noname   -0.234646
   19   H19        6.983719858     0.068801011    -1.299636556       H   1  noname    0.143968
   20   H20        6.093772267     1.344381215    -0.405670163       H   1  noname    0.130551
   21   H21        6.385199992    -0.258263003     0.360120211       H   1  noname    0.132026
   22   H22        4.549333454     0.856211476     1.270199028       H   1  noname    0.116218
   23   H23        2.323490225     0.898722489     2.361055814       H   1  noname    0.130358
   24   H24        0.579294927    -1.050238564    -1.049427418       H   1  noname    0.149703
   25   H25        2.813284017    -1.147795531    -2.136920056       H   1  noname    0.114616
   26   H26       -0.580336697     1.051022765    -1.053314513       H   1  noname    0.149578
   27   H27       -2.814788670     1.146600461    -2.138762381       H   1  noname    0.114603
   28   H28       -4.547239476    -0.859060669     1.268044957       H   1  noname    0.116143
   29   H29       -2.322294422    -0.900335550     2.358286217       H   1  noname    0.130287
   30   H30       -6.099971626    -1.342162846    -0.404024659       H   1  noname    0.130526
   31   H31       -6.384189659     0.261776600     0.361448278       H   1  noname    0.132061
   32   H32       -6.985433455    -0.063453637    -1.297291717       H   1  noname    0.144022


@<TRIPOS>BOND
    1      1      2    1
    2      2      3    1
    3      3      4    2
    4      4      5    1
    5      5      6    2
    6      6      7    1
    7      7      8    2
    8      6      9    1
    9      9     10    2
   10      9     11    1
   11     11     12    2
   12     12     13    1
   13     13     14    2
   14     14     15    1
   15     15     16    2
   16     14     17    1
   17     17     18    1
   18      8      3    1
   19     16     11    1
   20      1     19    1
   21      1     20    1
   22      1     21    1
   23      4     22    1
   24      5     23    1
   25      7     24    1
   26      8     25    1
   27     12     26    1
   28     13     27    1
   29     15     28    1
   30     16     29    1
   31     18     30    1
   32     18     31    1
   33     18     32    1
#
#	File Created by: Spartan'20 Export
#

@<TRIPOS>MOLECULE
M0306
28 29
SMALL
MULLIKEN_CHARGES


@<TRIPOS>ATOM
    1   C1         4.828750294     0.698708834    -1.012970510     C.3   1  noname   -0.233634
    2   O2         4.365919442     0.157722636     0.224056290     O.3   1  noname   -0.175022
    3   C3         3.034381945    -0.093080471     0.349636265     C.2   1  noname    0.280833
    4   C4         2.625515962    -0.610169302     1.594076677     C.2   1  noname   -0.145979
    5   C5         1.291638422    -0.899126431     1.819094285     C.2   1  noname   -0.133489
    6   C6         0.318771130    -0.660020993     0.827426648     C.2   1  noname    0.111164
    7   C7         0.741202338    -0.155085174    -0.410340023     C.2   1  noname   -0.212379
    8   C8         2.084996144     0.123439408    -0.660542040     C.2   1  noname   -0.202399
    9   C9        -1.094344672    -1.036885409     1.113542626     C.2   1  noname    0.151700
   10   O10       -1.357730786    -1.887142426     1.965279803     O.2   1  noname   -0.269052
   11   C11       -2.212213463    -0.375345714     0.359082223     C.2   1  noname    0.139947
   12   C12       -3.379159602    -1.119094866     0.120319497     C.2   1  noname   -0.136396
   13   C13       -4.467291053    -0.539782348    -0.527257503     C.2   1  noname   -0.103410
   14   C14       -4.416180644     0.801856651    -0.919981332     C.2   1  noname   -0.073460
   15   C15       -3.270488810     1.557903147    -0.664011209     C.2   1  noname   -0.113827
   16   C16       -2.170155513     0.971049726    -0.036327974     C.2   1  noname   -0.191267
   17   H17        4.355276352     1.671263754    -1.226671195       H   1  noname    0.130534
   18   H18        5.908939761     0.837051785    -0.892240414       H   1  noname    0.145838
   19   H19        4.639939918     0.007585047    -1.851216006       H   1  noname    0.131596
   20   H20        3.382131147    -0.777035069     2.362043888       H   1  noname    0.117628
   21   H21        0.963673462    -1.319503404     2.771050752       H   1  noname    0.136153
   22   H22        0.012810704    -0.003971659    -1.208443049       H   1  noname    0.147686
   23   H23        2.379985898     0.497959362    -1.639485407       H   1  noname    0.115636
   24   H24       -3.411479143    -2.156696744     0.457086705       H   1  noname    0.131788
   25   H25       -5.363323528    -1.132353889    -0.721974733       H   1  noname    0.114640
   26   H26       -5.273139001     1.259119658    -1.418428246       H   1  noname    0.114467
   27   H27       -3.234609848     2.610964521    -0.949351550       H   1  noname    0.113019
   28   H28       -1.283816858     1.570669368     0.176545533       H   1  noname    0.146574


@<TRIPOS>BOND
    1      1      2    1
    2      2      3    1
    3      3      4    2
    4      4      5    1
    5      5      6    2
    6      6      7    1
    7      7      8    2
    8      6      9    1
    9      9     10    2
   10      9     11    1
   11     11     12    2
   12     12     13    1
   13     13     14    2
   14     14     15    1
   15     15     16    2
   16      8      3    1
   17     16     11    1
   18      1     17    1
   19      1     18    1
   20      1     19    1
   21      4     20    1
   22      5     21    1
   23      7     22    1
   24      8     23    1
   25     12     24    1
   26     13     25    1
   27     14     26    1
   28     15     27    1
   29     16     28    1
#
#	File Created by: Spartan'20 Export
#

@<TRIPOS>MOLECULE
M0307
18 18
SMALL
MULLIKEN_CHARGES


@<TRIPOS>ATOM
    1   C1         0.165220843     0.000163157    -3.196946089     C.3   1  noname   -0.236474
    2   O2        -0.855155470    -0.000175032    -2.197479174     O.3   1  noname   -0.171141
    3   C3        -0.475465405    -0.000188232    -0.893101338     C.2   1  noname    0.276073
    4   C4         0.857718858    -0.000254311    -0.452443123     C.2   1  noname   -0.202256
    5   C5         1.120702084    -0.000163405     0.916773032     C.2   1  noname   -0.150251
    6   C6         0.082312546    -0.000019226     1.855479635     C.2   1  noname    0.145779
    7   C7        -1.250402083    -0.000026631     1.397719097     C.2   1  noname   -0.142674
    8   C8        -1.529350882    -0.000121038     0.044097697     C.2   1  noname   -0.128314
    9   C9         0.384269544     0.000164467     3.294911046     C.2   1  noname    0.043003
   10   O10       -0.449520063     0.000310066     4.187666143     O.2   1  noname   -0.242498
   11   H11        0.798044006    -0.899950576    -3.124987165       H   1  noname    0.133275
   12   H12       -0.361845703     0.000178356    -4.157535884       H   1  noname    0.147520
   13   H13        0.797668282     0.900520871    -3.124724794       H   1  noname    0.133285
   14   H14        1.683740410    -0.000387134    -1.161726737       H   1  noname    0.119192
   15   H15        2.157465461    -0.000192582     1.266074039       H   1  noname    0.115159
   16   H16       -2.052084473     0.000071581     2.138793491       H   1  noname    0.139615
   17   H17       -2.554311596    -0.000106667    -0.330120863       H   1  noname    0.120901
   18   H18        1.480993641     0.000176335     3.537550986       H   1  noname    0.049028


@<TRIPOS>BOND
    1      1      2    1
    2      2      3    1
    3      3      4    2
    4      4      5    1
    5      5      6    2
    6      6      7    1
    7      7      8    2
    8      6      9    1
    9      9     10    2
   10      8      3    1
   11      1     11    1
   12      1     12    1
   13      1     13    1
   14      4     14    1
   15      5     15    1
   16      7     16    1
   17      8     17    1
   18      9     18    1
#
#	File Created by: Spartan'20 Export
#

@<TRIPOS>MOLECULE
M0308
18 18
SMALL
MULLIKEN_CHARGES


@<TRIPOS>ATOM
    1   C1         0.455983103     0.000129135    -3.162118997     C.3   1  noname   -0.238150
    2   O2        -0.652721940    -0.000083909    -2.259680862     O.3   1  noname   -0.168536
    3   C3        -0.393253538    -0.000130201    -0.928058977     C.2   1  noname    0.273271
    4   C4         0.896572431    -0.000186117    -0.367587777     C.2   1  noname   -0.170846
    5   C5         1.046383050    -0.000128877     1.016313326     C.2   1  noname   -0.151927
    6   C6        -0.082965744    -0.000025568     1.831987932     C.2   1  noname    0.032712
    7   C7        -1.371776623    -0.000041528     1.286564080     C.2   1  noname   -0.115509
    8   C8        -1.524554062    -0.000106193    -0.089271153     C.2   1  noname   -0.133151
    9   N9         0.083971353     0.000132913     3.292340294       N   1  noname    0.394134
   10   O10       -0.937659230     0.000306386     3.986943300       O   1  noname   -0.270501
   11   O11        1.235904369     0.000099016     3.739743691     O.2   1  noname   -0.270592
   12   H12        1.077438664    -0.900501055    -3.031386370       H   1  noname    0.135672
   13   H13        0.019655652     0.000128152    -4.166957394       H   1  noname    0.149714
   14   H14        1.077178917     0.900921768    -3.031254378       H   1  noname    0.135681
   15   H15        1.782880117    -0.000281801    -1.000156229       H   1  noname    0.125881
   16   H16        2.033747706    -0.000147515     1.475839202       H   1  noname    0.151900
   17   H17       -2.232568789     0.000020275     1.953847974       H   1  noname    0.154748
   18   H18       -2.514215436    -0.000104880    -0.547107662       H   1  noname    0.126038


@<TRIPOS>BOND
    1      1      2    1
    2      2      3    1
    3      3      4    2
    4      4      5    1
    5      5      6    2
    6      6      7    1
    7      7      8    2
    8      6      9    1
    9      9     10    1
   10      9     11    2
   11      8      3    1
   12      1     12    1
   13      1     13    1
   14      1     14    1
   15      4     15    1
   16      5     16    1
   17      7     17    1
   18      8     18    1
#
#	File Created by: Spartan'20 Export
#

@<TRIPOS>MOLECULE
M0309
18 18
SMALL
MULLIKEN_CHARGES


@<TRIPOS>ATOM
    1   C1        -1.888984605     0.000056500     2.038733379     C.3   1  noname   -0.251923
    2   O2        -0.506396337     0.001161576     1.684556582     O.3   1  noname   -0.124695
    3   C3        -0.181207779     0.000362339     0.373433095     C.2   1  noname    0.181905
    4   C4        -1.130567263     0.000254271    -0.661242988     C.2   1  noname   -0.203509
    5   C5        -0.722454460    -0.000059387    -1.995691366     C.2   1  noname   -0.104518
    6   C6         0.632697717    -0.000224332    -2.332769803     C.2   1  noname   -0.120001
    7   C7         1.573711203    -0.000198186    -1.308209384     C.2   1  noname   -0.139198
    8   C8         1.203820011     0.000038896     0.045872680     C.2   1  noname    0.176784
    9   C9         2.300138658    -0.000056300     1.036573655     C.2   1  noname    0.014960
   10   O10        2.209505225    -0.002190359     2.251314207     O.2   1  noname   -0.213160
   11   H11       -2.401508420    -0.900624087     1.661651474       H   1  noname    0.130769
   12   H12       -2.402761037     0.900062230     1.661754380       H   1  noname    0.130740
   13   H13       -1.908764348    -0.000028197     3.133950870       H   1  noname    0.151717
   14   H14       -2.194549477     0.000499594    -0.430302171       H   1  noname    0.123194
   15   H15       -1.481498341    -0.000115112    -2.780775654       H   1  noname    0.116473
   16   H16        0.946499512    -0.000398833    -3.376967177       H   1  noname    0.116743
   17   H17        2.642043583    -0.000424545    -1.543551034       H   1  noname    0.114825
   18   H18        3.310276157     0.001883932     0.541669253       H   1  noname    0.048524


@<TRIPOS>BOND
    1      1      2    1
    2      2      3    1
    3      3      4    2
    4      4      5    1
    5      5      6    2
    6      6      7    1
    7      7      8    2
    8      8      9    1
    9      9     10    2
   10      8      3    1
   11      1     11    1
   12      1     12    1
   13      1     13    1
   14      4     14    1
   15      5     15    1
   16      6     16    1
   17      7     17    1
   18      9     18    1
#
#	File Created by: Spartan'20 Export
#

@<TRIPOS>MOLECULE
M0310
20 20
SMALL
MULLIKEN_CHARGES


@<TRIPOS>ATOM
    1   C1        -2.719942556     0.000104241    -1.456293574     C.3   1  noname   -0.242776
    2   O2        -1.298271396    -0.000189326    -1.412320259     O.3   1  noname   -0.170601
    3   C3        -0.709781974    -0.000146558    -0.180007248     C.2   1  noname    0.212043
    4   C4        -1.394664172    -0.000161848     1.035328946     C.2   1  noname   -0.196818
    5   C5        -0.694278434    -0.000063433     2.250028453     C.2   1  noname   -0.137637
    6   C6         0.694378090     0.000048073     2.250189813     C.2   1  noname   -0.137577
    7   C7         1.395590776     0.000025973     1.035762425     C.2   1  noname   -0.197024
    8   C8         0.711154596    -0.000084327    -0.180038738     C.2   1  noname    0.211862
    9   O9         1.298393019    -0.000131052    -1.412724074     O.3   1  noname   -0.170537
   10   C10        2.719814556     0.000011121    -1.456820463     C.3   1  noname   -0.242611
   11   H11       -3.142722169    -0.898961259    -0.975262499       H   1  noname    0.126017
   12   H12       -3.142327059     0.899428940    -0.975399122       H   1  noname    0.126024
   13   H13       -2.985347074     0.000063329    -2.520074528       H   1  noname    0.140261
   14   H14       -2.484183779    -0.000271052     1.044875196       H   1  noname    0.113586
   15   H15       -1.250226692    -0.000065009     3.188643454       H   1  noname    0.103805
   16   H16        1.249127165     0.000155292     3.189419119       H   1  noname    0.103801
   17   H17        2.484965926     0.000102674     1.046178962       H   1  noname    0.113732
   18   H18        3.141674896    -0.899177257    -0.975350826       H   1  noname    0.125983
   19   H19        3.141482586     0.899417260    -0.975588203       H   1  noname    0.125983
   20   H20        2.985163696    -0.000105782    -2.520546835       H   1  noname    0.140213


@<TRIPOS>BOND
    1      1      2    1
    2      2      3    1
    3      3      4    2
    4      4      5    1
    5      5      6    2
    6      6      7    1
    7      7      8    2
    8      8      9    1
    9      9     10    1
   10      8      3    1
   11      1     11    1
   12      1     12    1
   13      1     13    1
   14      4     14    1
   15      5     15    1
   16      6     16    1
   17      7     17    1
   18     10     18    1
   19     10     19    1
   20     10     20    1
#
#	File Created by: Spartan'20 Export
#

@<TRIPOS>MOLECULE
M0311
15 15
SMALL
MULLIKEN_CHARGES


@<TRIPOS>ATOM
    1   C1         0.318362958     0.000022951    -2.669614094     C.3   1  noname   -0.199509
    2   O2        -0.730854202    -0.000023959    -1.688514012     O.3   1  noname   -0.183137
    3   C3        -0.345284812    -0.000029300    -0.388013726     C.2   1  noname    0.274049
    4   C4        -1.374509111    -0.000007940     0.573939501     C.2   1  noname   -0.152333
    5   C5        -1.007847920     0.000017966     1.910338081     C.2   1  noname   -0.076050
    6   C6         0.352860297     0.000002163     2.250148940     C.2   1  noname   -0.085014
    7   C7         1.282682564    -0.000041973     1.216845721     C.2   1  noname   -0.084032
    8   N8         0.951567447    -0.000051043    -0.087708765     N.2   1  noname   -0.193429
    9   H9         0.952599624    -0.892585239    -2.570360639       H   1  noname    0.124460
   10   H10       -0.196880888    -0.000065977    -3.636998636       H   1  noname    0.131387
   11   H11        0.952442401     0.892751638    -2.570435588       H   1  noname    0.124452
   12   H12       -2.415886838    -0.000001135     0.251359831       H   1  noname    0.110551
   13   H13       -1.775106556     0.000054286     2.686914484       H   1  noname    0.114418
   14   H14        0.680216319     0.000025854     3.289842787       H   1  noname    0.109332
   15   H15        2.355638718    -0.000068291     1.432256115       H   1  noname    0.105686


@<TRIPOS>BOND
    1      1      2    1
    2      2      3    1
    3      3      4    2
    4      4      5    1
    5      5      6    2
    6      6      7    1
    7      7      8    2
    8      8      3    1
    9      1      9    1
   10      1     10    1
   11      1     11    1
   12      4     12    1
   13      5     13    1
   14      6     14    1
   15      7     15    1
#
#	File Created by: Spartan'20 Export
#

@<TRIPOS>MOLECULE
M0312
16 16
SMALL
MULLIKEN_CHARGES


@<TRIPOS>ATOM
    1   C1        -0.342666976    -0.002958371     2.703362205     C.3   1  noname   -0.232484
    2   O2         0.735928398     0.004634959     1.769600639     O.3   1  noname   -0.178649
    3   C3         0.408982734     0.005394633     0.447021162     C.2   1  noname    0.247938
    4   C4        -0.892561749     0.006329253    -0.070298849     C.2   1  noname   -0.161669
    5   C5        -1.098127509     0.003106671    -1.441961030     C.2   1  noname   -0.128716
    6   N6        -0.060156335     0.000425579    -2.340819752       N   1  noname    0.319519
    7   O7        -0.266243933    -0.013298541    -3.603680654       O   1  noname   -0.445345
    8   C8         1.222113463     0.000699990    -1.828364298     C.2   1  noname   -0.091231
    9   C9         1.469962119     0.003893018    -0.472482769     C.2   1  noname   -0.116885
   10   H10       -0.968741503    -0.903636571     2.585672107       H   1  noname    0.130548
   11   H11        0.119907266    -0.007602451     3.696400525       H   1  noname    0.147306
   12   H12       -0.971802027     0.896693421     2.595197245       H   1  noname    0.130469
   13   H13       -1.770573487     0.007307408     0.573397540       H   1  noname    0.124285
   14   H14       -2.081122833     0.000621983    -1.907472192       H   1  noname    0.132224
   15   H15        1.995949508    -0.004020960    -2.592547903       H   1  noname    0.133868
   16   H16        2.499152863     0.002409981    -0.113023977       H   1  noname    0.121791


@<TRIPOS>BOND
    1      1      2    1
    2      2      3    1
    3      3      4    2
    4      4      5    1
    5      5      6    2
    6      6      7    1
    7      6      8    1
    8      8      9    2
    9      9      3    1
   10      1     10    1
   11      1     11    1
   12      1     12    1
   13      4     13    1
   14      5     14    1
   15      8     15    1
   16      9     16    1
#
#	File Created by: Spartan'20 Export
#

@<TRIPOS>MOLECULE
M0313
14 13
SMALL
MULLIKEN_CHARGES


@<TRIPOS>ATOM
    1   C1        -1.666956772     0.000042616    -0.129639050     C.3   1  noname   -0.387908
    2   P2        -0.001614526    -0.000047875     0.616098114       P   1  noname    0.557563
    3   O3        -0.004238274    -0.000090830     2.112478225     O.2   1  noname   -0.470045
    4   C4         0.833944872    -1.444271069    -0.124358328     C.3   1  noname   -0.387249
    5   C5         0.833816558     1.444252103    -0.124349304     C.3   1  noname   -0.387230
    6   H6        -2.208377656     0.891160422     0.215878876       H   1  noname    0.142338
    7   H7        -1.625747583    -0.000161126    -1.227837398       H   1  noname    0.121525
    8   H8        -2.208662285    -0.890787273     0.216173665       H   1  noname    0.142348
    9   H9         0.804470121    -1.419022660    -1.222989461       H   1  noname    0.121602
   10   H10        0.340451438    -2.358341422     0.232816936       H   1  noname    0.142466
   11   H11        1.879260381    -1.458350353     0.212941693       H   1  noname    0.141766
   12   H12        0.804096866     1.419070614    -1.222980670       H   1  noname    0.121600
   13   H13        1.879192690     1.458286111     0.212736978       H   1  noname    0.141757
   14   H14        0.340364171     2.358260741     0.233029724       H   1  noname    0.142466


@<TRIPOS>BOND
    1      1      2    1
    2      2      3    2
    3      2      4    1
    4      2      5    1
    5      1      6    1
    6      1      7    1
    7      1      8    1
    8      4      9    1
    9      4     10    1
   10      4     11    1
   11      5     12    1
   12      5     13    1
   13      5     14    1
#
#	File Created by: Spartan'20 Export
#

@<TRIPOS>MOLECULE
M0314
11 10
SMALL
MULLIKEN_CHARGES


@<TRIPOS>ATOM
    1   C1         1.409018603     0.000045029    -0.329838551     C.3   1  noname   -0.347137
    2   S2         0.000003705     0.000064098     0.786249963       S   1  noname    0.714367
    3   O3        -0.000041858     1.265100568     1.508218381     O.2   1  noname   -0.367142
    4   O4         0.000030785    -1.264904460     1.508332800     O.2   1  noname   -0.367141
    5   C5        -1.408990892    -0.000064938    -0.329864986     C.3   1  noname   -0.347150
    6   H6         2.295229956    -0.000367103     0.317376645       H   1  noname    0.157703
    7   H7         1.388396788    -0.907441874    -0.944686926       H   1  noname    0.142180
    8   H8         1.388828789     0.907855122    -0.944219017       H   1  noname    0.142202
    9   H9        -1.388666157     0.907517162    -0.944578619       H   1  noname    0.142192
   10   H10       -2.295170020    -0.000021139     0.317396652       H   1  noname    0.157703
   11   H11       -1.388639699    -0.907782465    -0.944386343       H   1  noname    0.142196


@<TRIPOS>BOND
    1      1      2    1
    2      2      3    2
    3      2      4    2
    4      2      5    1
    5      1      6    1
    6      1      7    1
    7      1      8    1
    8      5      9    1
    9      5     10    1
   10      5     11    1
#
#	File Created by: Spartan'20 Export
#

@<TRIPOS>MOLECULE
M0315
10 9
SMALL
MULLIKEN_CHARGES


@<TRIPOS>ATOM
    1   C1        -0.055006784    -1.354412253     0.217936656     C.3   1  noname   -0.353099
    2   S2        -0.544878536    -0.000001942    -0.906899544       S   1  noname    0.458632
    3   O3         0.434262221     0.000005462    -2.042968373     O.2   1  noname   -0.466092
    4   C4        -0.055070341     1.354437418     0.217935979     C.3   1  noname   -0.353085
    5   H5         1.011259854    -1.248563991     0.460292238       H   1  noname    0.134402
    6   H6        -0.225598931    -2.290480355    -0.328237088       H   1  noname    0.150044
    7   H7        -0.675200642    -1.331829255     1.124920794       H   1  noname    0.122773
    8   H8        -0.675460629     1.331902737     1.124784152       H   1  noname    0.122772
    9   H9        -0.225427957     2.290519569    -0.328283378       H   1  noname    0.150048
   10   H10        1.011121747     1.248422611     0.460518564       H   1  noname    0.134391


@<TRIPOS>BOND
    1      1      2    1
    2      2      3    2
    3      2      4    1
    4      1      5    1
    5      1      6    1
    6      1      7    1
    7      4      8    1
    8      4      9    1
    9      4     10    1
#
#	File Created by: Spartan'20 Export
#

@<TRIPOS>MOLECULE
M0316
17 17
SMALL
MULLIKEN_CHARGES


@<TRIPOS>ATOM
    1   C1         2.647903979     0.387781233    -0.421905996     C.3   1  noname   -0.360142
    2   S2         1.874986236    -0.398297365     1.041350183       S   1  noname    0.451928
    3   O3         2.177811773    -1.863906206     0.943384346     O.2   1  noname   -0.459203
    4   C4         0.160366575    -0.149697512     0.485435012     C.2   1  noname    0.094134
    5   C5        -0.514893536    -1.233522467    -0.072254957     C.2   1  noname   -0.152361
    6   C6        -1.845013015    -1.072428195    -0.467366286     C.2   1  noname   -0.087242
    7   C7        -2.486325281     0.157020038    -0.294116570     C.2   1  noname   -0.086751
    8   C8        -1.801528290     1.231988653     0.281575849     C.2   1  noname   -0.101294
    9   C9        -0.472894289     1.079966328     0.681985730     C.2   1  noname   -0.158252
   10   H10        2.337214910    -0.169728864    -1.315078934       H   1  noname    0.144943
   11   H11        3.733624416     0.316786672    -0.277532703       H   1  noname    0.145808
   12   H12        2.335849344     1.438753850    -0.483555196       H   1  noname    0.128956
   13   H13        0.010538489    -2.185611406    -0.177603789       H   1  noname    0.149807
   14   H14       -2.385259200    -1.912358352    -0.908542383       H   1  noname    0.118416
   15   H15       -3.527820053     0.276192388    -0.597925424       H   1  noname    0.117329
   16   H16       -2.306897695     2.188169658     0.429454536       H   1  noname    0.117397
   17   H17        0.062335638     1.908891549     1.152696583       H   1  noname    0.114895


@<TRIPOS>BOND
    1      1      2    1
    2      2      3    2
    3      2      4    1
    4      4      5    2
    5      5      6    1
    6      6      7    2
    7      7      8    1
    8      8      9    2
    9      9      4    1
   10      1     10    1
   11      1     11    1
   12      1     12    1
   13      5     13    1
   14      6     14    1
   15      7     15    1
   16      8     16    1
   17      9     17    1
#
#	File Created by: Spartan'20 Export
#

@<TRIPOS>MOLECULE
M0317
9 8
SMALL
MULLIKEN_CHARGES


@<TRIPOS>ATOM
    1   C1         1.378992074     0.000094227    -0.019739582     C.3   1  noname   -0.345478
    2   S2        -0.000004669     0.000027016    -1.197106878     S.3   1  noname   -0.077172
    3   C3        -1.378975786    -0.000082589    -0.019732898     C.3   1  noname   -0.345480
    4   H4         1.359815972    -0.898791054     0.613042659       H   1  noname    0.130615
    5   H5         1.360159325     0.899295766     0.612605108       H   1  noname    0.130624
    6   H6         2.306404956    -0.000248190    -0.607358582       H   1  noname    0.142465
    7   H7        -2.306389281     0.000194986    -0.607348821       H   1  noname    0.142465
    8   H8        -1.359874937     0.898804993     0.613042102       H   1  noname    0.130616
    9   H9        -1.360127654    -0.899295153     0.612596892       H   1  noname    0.130623


@<TRIPOS>BOND
    1      1      2    1
    2      2      3    1
    3      1      4    1
    4      1      5    1
    5      1      6    1
    6      3      7    1
    7      3      8    1
    8      3      9    1
#
#	File Created by: Spartan'20 Export
#

@<TRIPOS>MOLECULE
M0318
7 6
SMALL
MULLIKEN_CHARGES


@<TRIPOS>ATOM
    1   C1         0.067542620     0.000017438    -0.974236620     C.3   1  noname   -0.337054
    2   S2        -1.201871988     0.000075545     0.343956804     S.3   1  noname    0.060571
    3   C3        -0.200668291    -0.000010031     1.699578523     C.1   1  noname   -0.135172
    4   N4         0.465905771    -0.000080909     2.662623966     N.1   1  noname    0.006578
    5   H5        -0.497503477    -0.000080071    -1.915339732       H   1  noname    0.151113
    6   H6         0.683322088    -0.903459354    -0.908218501       H   1  noname    0.160993
    7   H7         0.683273277     0.903537383    -0.908364440       H   1  noname    0.160990


@<TRIPOS>BOND
    1      1      2    1
    2      2      3    1
    3      3      4    3
    4      1      5    1
    5      1      6    1
    6      1      7    1
#
#	File Created by: Spartan'20 Export
#

@<TRIPOS>MOLECULE
M0319
10 9
SMALL
MULLIKEN_CHARGES


@<TRIPOS>ATOM
    1   C1         1.862776937    -0.396182049     0.109059290     C.3   1  noname   -0.326287
    2   S2         0.905104171     0.475744174    -1.178666628     S.3   1  noname   -0.051737
    3   S3        -0.905197667    -0.475871334    -1.178630095     S.3   1  noname   -0.051726
    4   C4        -1.862761327     0.396196601     0.109061232     C.3   1  noname   -0.326286
    5   H5         1.917174827    -1.468491370    -0.114089968       H   1  noname    0.143950
    6   H6         2.874012571     0.036028458     0.078145817       H   1  noname    0.134118
    7   H7         1.433715750    -0.232413778     1.105524577       H   1  noname    0.133532
    8   H8        -1.916953385     1.468528555    -0.114039556       H   1  noname    0.143951
    9   H9        -1.433796190     0.232286235     1.105539763       H   1  noname    0.133532
   10   H10       -2.874075685    -0.035825491     0.078095567       H   1  noname    0.134116


@<TRIPOS>BOND
    1      1      2    1
    2      2      3    1
    3      3      4    1
    4      1      5    1
    5      1      6    1
    6      1      7    1
    7      4      8    1
    8      4      9    1
    9      4     10    1
#
#	File Created by: Spartan'20 Export
#

@<TRIPOS>MOLECULE
M0320
27 28
SMALL
MULLIKEN_CHARGES


@<TRIPOS>ATOM
    1   C1         0.793841713     2.041304011     0.604950144     C.3   1  noname   -0.382032
    2   C2        -0.079117694     0.842916875     0.304235745     C.3   1  noname    0.319007
    3   C3        -1.101139073     1.061379163    -0.868895141     C.3   1  noname   -0.250334
    4   C4        -1.498017661    -0.371375151    -1.317677825     C.3   1  noname   -0.240620
    5   C5        -0.736562240    -1.259527594    -0.311775286     C.3   1  noname    0.082568
    6   C6         0.615923146    -0.504566881    -0.133721539     C.3   1  noname    0.081992
    7   C7         1.437822747    -0.388114826    -1.420855923     C.3   1  noname   -0.405009
    8   C8         1.523071529    -1.095143510     0.954295313     C.3   1  noname   -0.398017
    9   C9        -1.408350264    -1.044058933     1.055333834     C.3   1  noname   -0.187113
   10   C10       -0.968202177     0.359207812     1.436872766     C.2   1  noname   -0.101692
   11   S11       -1.400472160     1.172591664     2.781398402     S.2   1  noname   -0.224744
   12   H12        1.496909699     1.822621835     1.421779226       H   1  noname    0.121942
   13   H13        1.368005406     2.343136974    -0.283530595       H   1  noname    0.116230
   14   H14        0.180525812     2.894041294     0.929145061       H   1  noname    0.130239
   15   H15       -1.954129490     1.668339295    -0.536531834       H   1  noname    0.106790
   16   H16       -0.598538315     1.623582240    -1.669801256       H   1  noname    0.117091
   17   H17       -1.186771345    -0.571853348    -2.352000749       H   1  noname    0.110754
   18   H18       -2.582192109    -0.545273018    -1.267883456       H   1  noname    0.091980
   19   H19       -0.643660909    -2.313250183    -0.610209785       H   1  noname    0.079282
   20   H20        0.882216316     0.055831022    -2.255936605       H   1  noname    0.121747
   21   H21        1.777026287    -1.386151183    -1.739431218       H   1  noname    0.118307
   22   H22        2.337275155     0.224013627    -1.256992221       H   1  noname    0.124869
   23   H23        1.037513846    -1.167362042     1.936302851       H   1  noname    0.130370
   24   H24        1.857439436    -2.103510191     0.666338484       H   1  noname    0.117184
   25   H25        2.423742788    -0.476791721     1.084494708       H   1  noname    0.122107
   26   H26       -1.068009077    -1.760234066     1.818644541       H   1  noname    0.127677
   27   H27       -2.506151366    -1.121753166     1.031452355       H   1  noname    0.110868


@<TRIPOS>BOND
    1      2      1    1
    2      2      3    1
    3      3      4    1
    4      4      5    1
    5      5      6    1
    6      6      7    1
    7      6      8    1
    8      5      9    1
    9      9     10    1
   10     10     11    2
   11      6      2    1
   12     10      2    1
   13      1     12    1
   14      1     13    1
   15      1     14    1
   16      3     15    1
   17      3     16    1
   18      4     17    1
   19      4     18    1
   20      5     19    1
   21      7     20    1
   22      7     21    1
   23      7     22    1
   24      8     23    1
   25      8     24    1
   26      8     25    1
   27      9     26    1
   28      9     27    1
#
#	File Created by: Spartan'20 Export
#

@<TRIPOS>MOLECULE
M0321
16 15
SMALL
MULLIKEN_CHARGES


@<TRIPOS>ATOM
    1   C1        -1.045560543    -0.000028970    -1.296116278     C.3   1  noname   -0.259110
    2   N2        -0.188645506     0.000198980    -0.076781938     N.4   1  noname    0.195752
    3   C3         0.674842590    -1.229492128    -0.060963497     C.3   1  noname   -0.289044
    4   C4         0.674936603     1.229838006    -0.061410485     C.3   1  noname   -0.288996
    5   N5        -1.144280744     0.000603607     1.046083452    N.ar   1  noname   -0.332286
    6   C6        -0.479743668    -0.000345126     2.186925122     C.1   1  noname   -0.211021
    7   N7         0.068457385    -0.001283232     3.235917613     N.1   1  noname   -0.092045
    8   H8        -0.411157164    -0.000216704    -2.191573770       H   1  noname    0.131657
    9   H9        -1.677523793    -0.892784625    -1.257653246       H   1  noname    0.154054
   10   H10       -1.677567763     0.892705783    -1.257995112       H   1  noname    0.154070
   11   H11        0.008043440    -2.097815497    -0.070187582       H   1  noname    0.150674
   12   H12        1.252682948    -1.221517252     0.870978165       H   1  noname    0.180121
   13   H13        1.342252220    -1.234149697    -0.933193694       H   1  noname    0.131283
   14   H14        0.008163242     2.098165143    -0.070785898       H   1  noname    0.150675
   15   H15        1.252853105     1.221961688     0.870478314       H   1  noname    0.180089
   16   H16        1.342247648     1.234160022    -0.933721167       H   1  noname    0.131259


@<TRIPOS>BOND
    1      1      2    1
    2      2      3    1
    3      2      4    1
    4      2      5    1
    5      5      6    1
    6      6      7    3
    7      1      8    1
    8      1      9    1
    9      1     10    1
   10      3     11    1
   11      3     12    1
   12      3     13    1
   13      4     14    1
   14      4     15    1
   15      4     16    1
#
#	File Created by: Spartan'20 Export
#

@<TRIPOS>MOLECULE
M0322
14 13
SMALL
MULLIKEN_CHARGES


@<TRIPOS>ATOM
    1   C1        -1.417030258    -0.000027431    -0.109148854     C.3   1  noname   -0.267696
    2   N2         0.000624071     0.000048286     0.413632943     N.4   1  noname    0.268070
    3   C3         0.708995291     1.227838828    -0.111364474     C.3   1  noname   -0.267092
    4   C4         0.708958212    -1.227773749    -0.111371827     C.3   1  noname   -0.267135
    5   O5         0.001020220     0.000143938     1.760396608       O   1  noname   -0.559838
    6   H6        -1.448570158    -0.000134119    -1.209493137       H   1  noname    0.106382
    7   H7        -1.899098646     0.893281303     0.300783642       H   1  noname    0.136984
    8   H8        -1.898988277    -0.893360928     0.300881002       H   1  noname    0.136985
    9   H9         0.172783546     2.092125447     0.293186406       H   1  noname    0.136540
   10   H10        0.726904382     1.250950618    -1.211744513       H   1  noname    0.106300
   11   H11        1.722431701     1.202931165     0.301464779       H   1  noname    0.137054
   12   H12        0.726968579    -1.250846932    -1.211759166       H   1  noname    0.106320
   13   H13        0.172641863    -2.092097315     0.292993404       H   1  noname    0.136535
   14   H14        1.722359475    -1.203079111     0.301543187       H   1  noname    0.137064


@<TRIPOS>BOND
    1      1      2    1
    2      2      3    1
    3      2      4    1
    4      2      5    1
    5      1      6    1
    6      1      7    1
    7      1      8    1
    8      3      9    1
    9      3     10    1
   10      3     11    1
   11      4     12    1
   12      4     13    1
   13      4     14    1
#
#	File Created by: Spartan'20 Export
#

@<TRIPOS>MOLECULE
M0323
10 9
SMALL
MULLIKEN_CHARGES


@<TRIPOS>ATOM
    1   C1        -1.452428485    -0.165397800    -0.157282836     C.3   1  noname   -0.423678
    2   Se2        0.081774287     1.029317761    -0.555348016      Se   1  noname    0.642841
    3   O3         0.079539444     2.117379425     0.698538012     O.2   1  noname   -0.525876
    4   C4         1.434324413    -0.314684974    -0.010609784     C.3   1  noname   -0.423431
    5   H5        -1.376419967    -0.446447758     0.900079089       H   1  noname    0.142629
    6   H6        -1.425401027    -1.045523425    -0.813380368       H   1  noname    0.126497
    7   H7        -2.361105715     0.421065970    -0.333848908       H   1  noname    0.152108
    8   H8         1.367087057    -1.203289516    -0.652127613       H   1  noname    0.126191
    9   H9         2.413474531     0.165991367    -0.116604979       H   1  noname    0.151857
   10   H10        1.239155463    -0.558411051     1.040585402       H   1  noname    0.143224


@<TRIPOS>BOND
    1      1      2    1
    2      2      3    2
    3      2      4    1
    4      1      5    1
    5      1      6    1
    6      1      7    1
    7      4      8    1
    8      4      9    1
    9      4     10    1
#
#	File Created by: Spartan'20 Export
#

@<TRIPOS>MOLECULE
M0324
15 14
SMALL
MULLIKEN_CHARGES


@<TRIPOS>ATOM
    1   C1        -1.800247245     0.000055075    -0.364232994     C.3   1  noname   -0.431414
    2   Si2       -0.003221541     0.000089716     0.170238601      Si   1  noname    0.352872
    3   C3         0.900290779     1.553630655    -0.366063602     C.3   1  noname   -0.431058
    4   C4         0.900283192    -1.553440319    -0.366096621     C.3   1  noname   -0.431076
    5   C5        -0.003917888    -0.000179775     2.044919013     C.1   1  noname   -0.195145
    6   N6        -0.005051998    -0.000592901     3.210763832     N.1   1  noname    0.017072
    7   H7        -2.324073019     0.890283244     0.011815431       H   1  noname    0.144566
    8   H8        -1.873533857    -0.000696257    -1.462375169       H   1  noname    0.133985
    9   H9        -2.324299362    -0.889551887     0.012985780       H   1  noname    0.144587
   10   H10        0.935796729     1.613067437    -1.464493254       H   1  noname    0.133841
   11   H11        0.397407090     2.455945510     0.009624213       H   1  noname    0.144486
   12   H12        1.933692360     1.555418527     0.008869203       H   1  noname    0.144237
   13   H13        0.935618280    -1.613149958    -1.464516779       H   1  noname    0.133836
   14   H14        0.397519186    -2.455714560     0.009873633       H   1  noname    0.144492
   15   H15        1.933737295    -1.555164509     0.008688713       H   1  noname    0.144232


@<TRIPOS>BOND
    1      1      2    1
    2      2      3    1
    3      2      4    1
    4      2      5    1
    5      5      6    3
    6      1      7    1
    7      1      8    1
    8      1      9    1
    9      3     10    1
   10      3     11    1
   11      3     12    1
   12      4     13    1
   13      4     14    1
   14      4     15    1
#
#	File Created by: Spartan'20 Export
#

@<TRIPOS>MOLECULE
M0325
28 27
SMALL
MULLIKEN_CHARGES


@<TRIPOS>ATOM
    1   C1         0.035082727    -2.024359034     1.904914387     C.3   1  noname   -0.416248
    2   Si2       -0.179066009    -1.594086153     0.080293713      Si   1  noname    0.405238
    3   C3        -1.372575409    -2.823175563    -0.703774521     C.3   1  noname   -0.458828
    4   C4         1.508326022    -1.697445024    -0.752419436     C.3   1  noname   -0.434091
    5   N5        -0.854222103     0.002437442    -0.142630055     N.3   1  noname   -0.335858
    6   Si6       -0.133154119     1.594175232    -0.131106760      Si   1  noname    0.392442
    7   C7        -1.528656837     2.846405682     0.057981318     C.3   1  noname   -0.456936
    8   C8         0.808233564     1.947426804    -1.726918803     C.3   1  noname   -0.412173
    9   C9         1.070501626     1.750577123     1.311246045     C.3   1  noname   -0.427884
   10   H10        0.432761324    -3.044059512     2.026853069       H   1  noname    0.118677
   11   H11       -0.922978159    -1.968938078     2.443104406       H   1  noname    0.121198
   12   H12        0.734643521    -1.331907692     2.396762009       H   1  noname    0.127776
   13   H13       -1.003449076    -3.854431342    -0.598563955       H   1  noname    0.124797
   14   H14       -1.505786569    -2.619799551    -1.776650094       H   1  noname    0.130801
   15   H15       -2.362773797    -2.777979239    -0.223824145       H   1  noname    0.126019
   16   H16        1.423592083    -1.557822944    -1.839938797       H   1  noname    0.129966
   17   H17        2.200400623    -0.934371725    -0.365827704       H   1  noname    0.126273
   18   H18        1.965391840    -2.681009125    -0.566262459       H   1  noname    0.125006
   19   H19       -1.854995257     0.003427302    -0.332698737       H   1  noname    0.205624
   20   H20       -2.263575612     2.749581215    -0.755956403       H   1  noname    0.125663
   21   H21       -1.135418008     3.873708018     0.026843122       H   1  noname    0.124884
   22   H22       -2.056314133     2.716055451     1.014311382       H   1  noname    0.131045
   23   H23        1.246747482     2.957338904    -1.716479683       H   1  noname    0.118467
   24   H24        1.627009442     1.225755337    -1.866776737       H   1  noname    0.127206
   25   H25        0.143796642     1.874360530    -2.600883276       H   1  noname    0.121093
   26   H26        1.918315104     1.055608066     1.214578311       H   1  noname    0.124582
   27   H27        0.569809958     1.544436880     2.268596139       H   1  noname    0.129099
   28   H28        1.488353129     2.768090997     1.355227662       H   1  noname    0.125336


@<TRIPOS>BOND
    1      1      2    1
    2      2      3    1
    3      2      4    1
    4      2      5    1
    5      5      6    1
    6      6      7    1
    7      6      8    1
    8      6      9    1
    9      1     10    1
   10      1     11    1
   11      1     12    1
   12      3     13    1
   13      3     14    1
   14      3     15    1
   15      4     16    1
   16      4     17    1
   17      4     18    1
   18      5     19    1
   19      7     20    1
   20      7     21    1
   21      7     22    1
   22      8     23    1
   23      8     24    1
   24      8     25    1
   25      9     26    1
   26      9     27    1
   27      9     28    1
#
#	File Created by: Spartan'20 Export
#

@<TRIPOS>MOLECULE
M0326
27 26
SMALL
MULLIKEN_CHARGES


@<TRIPOS>ATOM
    1   C1         1.939296930     1.518390638    -0.909952610     C.3   1  noname   -0.434272
    2   Si2        1.589356918     0.000124338     0.143477751      Si   1  noname    0.456931
    3   C3         1.955464737    -1.557312577    -0.844399202     C.3   1  noname   -0.431699
    4   C4         2.613588041     0.044696609     1.714865990     C.3   1  noname   -0.429866
    5   O5         0.000157521    -0.000406368     0.613736009     O.3   1  noname   -0.205280
    6   Si6       -1.588969813    -0.000161108     0.143273162      Si   1  noname    0.456983
    7   C7        -1.954807990     1.557334659    -0.844684484     C.3   1  noname   -0.431719
    8   C8        -2.613304517    -0.044752981     1.714616361     C.3   1  noname   -0.429873
    9   C9        -1.939914982    -1.518078125    -0.910353938     C.3   1  noname   -0.434385
   10   H10        3.003738717     1.567840876    -1.185845415       H   1  noname    0.126714
   11   H11        1.351958954     1.502258424    -1.840370721       H   1  noname    0.121489
   12   H12        1.686772131     2.441355488    -0.367186648       H   1  noname    0.127601
   13   H13        1.716290084    -2.459812778    -0.262776071       H   1  noname    0.127050
   14   H14        3.018585798    -1.606044581    -1.125146703       H   1  noname    0.126254
   15   H15        1.361244095    -1.584706663    -1.770001313       H   1  noname    0.121882
   16   H16        3.691938343     0.041291484     1.494607532       H   1  noname    0.119823
   17   H17        2.389241367     0.950551464     2.297530897       H   1  noname    0.127992
   18   H18        2.394637411    -0.826364347     2.350436482       H   1  noname    0.128383
   19   H19       -3.018326513     1.606622703    -1.123868248       H   1  noname    0.126284
   20   H20       -1.714178370     2.460017106    -0.263969352       H   1  noname    0.127051
   21   H21       -1.362068109     1.583611693    -1.771260832       H   1  noname    0.121870
   22   H22       -2.388446859    -0.950322742     2.297547089       H   1  noname    0.127997
   23   H23       -3.691648279    -0.042214492     1.494278598       H   1  noname    0.119814
   24   H24       -2.395086645     0.826576031     2.350055386       H   1  noname    0.128378
   25   H25       -1.353115023    -1.502328674    -1.841108465       H   1  noname    0.121496
   26   H26       -3.004544535    -1.566869555    -1.185709096       H   1  noname    0.126701
   27   H27       -1.687859410    -2.441296524    -0.367792161       H   1  noname    0.127630


@<TRIPOS>BOND
    1      1      2    1
    2      2      3    1
    3      2      4    1
    4      2      5    1
    5      5      6    1
    6      6      7    1
    7      6      8    1
    8      6      9    1
    9      1     10    1
   10      1     11    1
   11      1     12    1
   12      3     13    1
   13      3     14    1
   14      3     15    1
   15      4     16    1
   16      4     17    1
   17      4     18    1
   18      7     19    1
   19      7     20    1
   20      7     21    1
   21      8     22    1
   22      8     23    1
   23      8     24    1
   24      9     25    1
   25      9     26    1
   26      9     27    1
#
#	File Created by: Spartan'20 Export
#

@<TRIPOS>MOLECULE
M0327
30 30
SMALL
MULLIKEN_CHARGES


@<TRIPOS>ATOM
    1   C1        -2.918264112    -0.000869444     0.078799933     C.3   1  noname   -0.451858
    2   C2        -1.406417361     0.001740327     0.010002690     C.2   1  noname    0.061144
    3   C3        -0.702623478    -1.218472266    -0.010927789     C.2   1  noname    0.067543
    4   C4         0.706281866    -1.218677108     0.010816923     C.2   1  noname    0.067097
    5   C5         1.410456571     0.001671778    -0.009955571     C.2   1  noname    0.060481
    6   C6         0.706425674     1.222299299     0.010633075     C.2   1  noname    0.066667
    7   C7        -0.702793805     1.222186425    -0.010869283     C.2   1  noname    0.067162
    8   C8        -1.460977085     2.528889317    -0.080383811     C.3   1  noname   -0.449799
    9   C9         1.459871694     2.531417425     0.080133093     C.3   1  noname   -0.449428
   10   C10        2.921804246    -0.001192776    -0.078451865     C.3   1  noname   -0.451267
   11   C11        1.457546966    -2.529643998     0.080644983     C.3   1  noname   -0.449833
   12   C12       -1.458446567    -2.527157736    -0.080713098     C.3   1  noname   -0.450172
   13   H13       -3.297162269    -0.880336574     0.615111811       H   1  noname    0.138075
   14   H14       -3.302530483     0.882477904     0.604340070       H   1  noname    0.137811
   15   H15       -3.383451233    -0.009137533    -0.922613955       H   1  noname    0.134543
   16   H16       -1.699428673     2.928167736     0.920988103       H   1  noname    0.134305
   17   H17       -0.888129493     3.301266435    -0.608474407       H   1  noname    0.137706
   18   H18       -2.411892261     2.413566223    -0.615895566       H   1  noname    0.137736
   19   H19        0.888220621     3.296312789     0.620663299       H   1  noname    0.137860
   20   H20        1.682603655     2.939364152    -0.921297495       H   1  noname    0.134164
   21   H21        2.417511524     2.417954295     0.603380090       H   1  noname    0.137267
   22   H22        3.299874646    -0.880697662    -0.615151483       H   1  noname    0.137852
   23   H23        3.305508789     0.882346595    -0.603971377       H   1  noname    0.137539
   24   H24        3.386105401    -0.009712887     0.923247729       H   1  noname    0.134296
   25   H25        0.886931248    -3.291373003     0.627044856       H   1  noname    0.138185
   26   H26        2.418647197    -2.418004601     0.597759986       H   1  noname    0.137304
   27   H27        1.672977955    -2.942602316    -0.920421384       H   1  noname    0.134368
   28   H28       -0.886722490    -3.295938095    -0.615611309       H   1  noname    0.138032
   29   H29       -2.413395235    -2.413694303    -0.609235331       H   1  noname    0.137710
   30   H30       -1.688533510    -2.932150396     0.920407084       H   1  noname    0.134486


@<TRIPOS>BOND
    1      1      2    1
    2      2      3    2
    3      3      4    1
    4      4      5    2
    5      5      6    1
    6      6      7    2
    7      7      8    1
    8      6      9    1
    9      5     10    1
   10      4     11    1
   11      3     12    1
   12      7      2    1
   13      1     13    1
   14      1     14    1
   15      1     15    1
   16      8     16    1
   17      8     17    1
   18      8     18    1
   19      9     19    1
   20      9     20    1
   21      9     21    1
   22     10     22    1
   23     10     23    1
   24     10     24    1
   25     11     25    1
   26     11     26    1
   27     11     27    1
   28     12     28    1
   29     12     29    1
   30     12     30    1
#
#	File Created by: Spartan'20 Export
#

@<TRIPOS>MOLECULE
M0328
17 17
SMALL
MULLIKEN_CHARGES


@<TRIPOS>ATOM
    1   C1        -2.352793132     0.000032159    -1.068892463     C.3   1  noname   -0.372545
    2   C2        -1.184399288     0.000013092    -0.143400574     C.2   1  noname    0.272464
    3   C3        -1.220473095    -0.000027200     1.209503442     C.2   1  noname   -0.259639
    4   C4         0.000057030    -0.000010577     2.016640276     C.2   1  noname    0.243321
    5   O5        -0.000232711    -0.000003072     3.253428586     O.2   1  noname   -0.301205
    6   C6         1.220846233    -0.000000779     1.209716327     C.2   1  noname   -0.259664
    7   C7         1.184855357     0.000008661    -0.143214003     C.2   1  noname    0.272503
    8   O8         0.000224411     0.000028669    -0.835018972     O.3   1  noname   -0.140853
    9   C9         2.352842458    -0.000006186    -1.068944403     C.3   1  noname   -0.372422
   10   H10       -3.288621564     0.000007705    -0.498579922       H   1  noname    0.139623
   11   H11       -2.332819308    -0.886617805    -1.720959280       H   1  noname    0.137205
   12   H12       -2.332833415     0.886701753    -1.720930850       H   1  noname    0.137207
   13   H13       -2.180972801    -0.000070947     1.725287698       H   1  noname    0.111942
   14   H14        2.181023762    -0.000012624     1.725956101       H   1  noname    0.111953
   15   H15        3.288709744     0.000136573    -0.498780115       H   1  noname    0.139594
   16   H16        2.332363736    -0.886783035    -1.720795743       H   1  noname    0.137194
   17   H17        2.332222582     0.886603614    -1.721016107       H   1  noname    0.137192


@<TRIPOS>BOND
    1      1      2    1
    2      2      3    2
    3      3      4    1
    4      4      5    2
    5      4      6    1
    6      6      7    2
    7      7      8    1
    8      7      9    1
    9      8      2    1
   10      1     10    1
   11      1     11    1
   12      1     12    1
   13      3     13    1
   14      6     14    1
   15      9     15    1
   16      9     16    1
   17      9     17    1
#
#	File Created by: Spartan'20 Export
#

@<TRIPOS>MOLECULE
M0329
17 17
SMALL
MULLIKEN_CHARGES


@<TRIPOS>ATOM
    1   C1        -2.537946393    -0.070479715     0.683075536     C.3   1  noname   -0.372896
    2   C2        -1.213994900     0.001043071    -0.028070680     C.2   1  noname    0.194069
    3   C3         0.000576241    -0.069667050     0.661568528     C.2   1  noname   -0.256745
    4   C4         1.214734189     0.001039299    -0.028676700     C.2   1  noname    0.194281
    5   C5         1.143536535     0.145654917    -1.421626120     C.2   1  noname   -0.110823
    6   N6         0.000181995     0.218430158    -2.113884636     N.2   1  noname   -0.128430
    7   C7        -1.142648512     0.145736402    -1.421123971     C.2   1  noname   -0.110776
    8   C8         2.537904581    -0.070097438     0.682908823     C.3   1  noname   -0.372517
    9   H9        -2.665539179     0.774251216     1.377626992       H   1  noname    0.130105
   10   H10       -3.374126461    -0.047394406    -0.029261993       H   1  noname    0.125904
   11   H11       -2.624777584    -0.993354419     1.276643796       H   1  noname    0.129136
   12   H12        0.000388368    -0.182548092     1.750750542       H   1  noname    0.099570
   13   H13        2.067652092     0.205960804    -2.008027623       H   1  noname    0.100679
   14   H14       -2.067464382     0.206111845    -2.006761947       H   1  noname    0.100580
   15   H15        2.622226920    -0.991267278     1.279349115       H   1  noname    0.129047
   16   H16        3.374019235    -0.050155973    -0.029375613       H   1  noname    0.125830
   17   H17        2.665277256     0.776736661     1.374885953       H   1  noname    0.130075


@<TRIPOS>BOND
    1      1      2    1
    2      2      3    2
    3      3      4    1
    4      4      5    2
    5      5      6    1
    6      6      7    2
    7      4      8    1
    8      7      2    1
    9      1      9    1
   10      1     10    1
   11      1     11    1
   12      3     12    1
   13      5     13    1
   14      7     14    1
   15      8     15    1
   16      8     16    1
   17      8     17    1
#
#	File Created by: Spartan'20 Export
#

@<TRIPOS>MOLECULE
M0330
20 20
SMALL
MULLIKEN_CHARGES


@<TRIPOS>ATOM
    1   C1        -0.001384147     0.005235537     2.829101207     C.3   1  noname   -0.380895
    2   C2         0.001333684    -0.017136813     1.324694658     C.2   1  noname    0.199745
    3   C3        -1.191679050    -0.014502703     0.596142040     C.2   1  noname   -0.218814
    4   C4        -1.155612323    -0.001275727    -0.803071909     C.2   1  noname    0.159462
    5   N5         0.001125323     0.006074876    -1.490345692     N.2   1  noname   -0.163836
    6   C6         1.157950855    -0.001766277    -0.802995773     C.2   1  noname    0.159909
    7   C7         1.194790394    -0.014951862     0.596443856     C.2   1  noname   -0.219156
    8   C8         2.426189809     0.001618956    -1.614875814     C.3   1  noname   -0.368849
    9   C9        -2.425647294     0.002596435    -1.612952309     C.3   1  noname   -0.369429
   10   H10       -0.892260390    -0.491866140     3.237460828       H   1  noname    0.127445
   11   H11       -0.007575817     1.043610554     3.197554573       H   1  noname    0.133917
   12   H12        0.891609449    -0.483866768     3.242039435       H   1  noname    0.127339
   13   H13       -2.153216848    -0.026172123     1.116593233       H   1  noname    0.092992
   14   H14        2.156078620    -0.026954720     1.117021204       H   1  noname    0.093081
   15   H15        3.042931959    -0.883806586    -1.395823426       H   1  noname    0.120564
   16   H16        2.180968760     0.004578133    -2.683461255       H   1  noname    0.132377
   17   H17        3.040975935     0.887261819    -1.390995947       H   1  noname    0.120499
   18   H18       -3.042670520    -0.882435404    -1.392642471       H   1  noname    0.120697
   19   H19       -2.183713827     0.005611300    -2.682276593       H   1  noname    0.132429
   20   H20       -3.040194573     0.888147512    -1.387609846       H   1  noname    0.120632


@<TRIPOS>BOND
    1      1      2    1
    2      2      3    2
    3      3      4    1
    4      4      5    2
    5      5      6    1
    6      6      7    2
    7      6      8    1
    8      4      9    1
    9      7      2    1
   10      1     10    1
   11      1     11    1
   12      1     12    1
   13      3     13    1
   14      7     14    1
   15      8     15    1
   16      8     16    1
   17      8     17    1
   18      9     18    1
   19      9     19    1
   20      9     20    1
#
#	File Created by: Spartan'20 Export
#

@<TRIPOS>MOLECULE
M0331
20 20
SMALL
MULLIKEN_CHARGES


@<TRIPOS>ATOM
    1   C1        -3.336461242    -0.466970481    -0.163934504     C.3   1  noname   -0.373788
    2   C2        -1.868006143    -0.167080656    -0.032504489     C.2   1  noname    0.171819
    3   C3        -1.422039149     1.057198950     0.492909715     C.2   1  noname   -0.132030
    4   C4        -0.065997433     1.344014736     0.592994365     C.2   1  noname   -0.143115
    5   C5         0.897625716     0.412781752     0.169784732     C.2   1  noname    0.106104
    6   C6         0.457327437    -0.812041692    -0.354968129     C.2   1  noname   -0.152944
    7   C7        -0.903503368    -1.094547924    -0.452964497     C.2   1  noname   -0.166660
    8   C8         2.345851926     0.766813572     0.300619718     C.2   1  noname    0.165203
    9   O9         2.690507245     1.847443906     0.766173528     O.2   1  noname   -0.252423
   10   C10        3.382852047    -0.241912174    -0.157772824     C.3   1  noname   -0.350793
   11   H11       -3.923587032     0.045904863     0.610449550       H   1  noname    0.129578
   12   H12       -3.536245823    -1.545449866    -0.093880669       H   1  noname    0.128249
   13   H13       -3.719017061    -0.128576392    -1.141077757       H   1  noname    0.135752
   14   H14       -2.157546690     1.791927478     0.830365340       H   1  noname    0.110313
   15   H15        0.281951770     2.293053878     1.004374413       H   1  noname    0.137878
   16   H16        1.179449174    -1.558368672    -0.689090506       H   1  noname    0.115977
   17   H17       -1.227109247    -2.055217431    -0.861222300       H   1  noname    0.107805
   18   H18        3.296639819    -1.181723563     0.409063582       H   1  noname    0.131706
   19   H19        4.380559915     0.184367702    -0.007992348       H   1  noname    0.137811
   20   H20        3.246748138    -0.491617986    -1.221326920       H   1  noname    0.130830


@<TRIPOS>BOND
    1      1      2    1
    2      2      3    2
    3      3      4    1
    4      4      5    2
    5      5      6    1
    6      6      7    2
    7      5      8    1
    8      8      9    2
    9      8     10    1
   10      7      2    1
   11      1     11    1
   12      1     12    1
   13      1     13    1
   14      3     14    1
   15      4     15    1
   16      6     16    1
   17      7     17    1
   18     10     18    1
   19     10     19    1
   20     10     20    1
#
#	File Created by: Spartan'20 Export
#

@<TRIPOS>MOLECULE
M0332
17 17
SMALL
MULLIKEN_CHARGES


@<TRIPOS>ATOM
    1   C1        -0.009168280    -0.000684117     2.722312251     C.3   1  noname   -0.374067
    2   C2        -0.043511371     0.001109199     1.215764535     C.2   1  noname    0.142050
    3   C3        -0.044331875     1.197280929     0.485056826     C.2   1  noname   -0.161409
    4   C4        -0.037781169     1.205758823    -0.908509618     C.2   1  noname   -0.163099
    5   C5        -0.032043795     0.000768079    -1.632065283     C.2   1  noname    0.217183
    6   C6        -0.036773778    -1.203841161    -0.908158417     C.2   1  noname   -0.162908
    7   C7        -0.043405050    -1.194961015     0.485100740     C.2   1  noname   -0.161523
    8   N8        -0.095329441    -0.000693492    -3.028548991     N.3   1  noname   -0.416793
    9   H9        -0.504649448     0.888556659     3.137868068       H   1  noname    0.120367
   10   H10       -0.508629984    -0.889236575     3.134879827       H   1  noname    0.120426
   11   H11        1.026510612    -0.004068494     3.100683877       H   1  noname    0.123652
   12   H12       -0.050989596     2.150940558     1.019712772       H   1  noname    0.098266
   13   H13       -0.046427839     2.156779192    -1.447893212       H   1  noname    0.091447
   14   H14       -0.044400848    -2.155226525    -1.447096848       H   1  noname    0.091308
   15   H15       -0.049189961    -2.148724104     1.019778708       H   1  noname    0.098199
   16   H16        0.258966574    -0.842879642    -3.473158158       H   1  noname    0.222510
   17   H17        0.261155249     0.839121687    -3.475727076       H   1  noname    0.222520


@<TRIPOS>BOND
    1      1      2    1
    2      2      3    2
    3      3      4    1
    4      4      5    2
    5      5      6    1
    6      6      7    2
    7      5      8    1
    8      7      2    1
    9      1      9    1
   10      1     10    1
   11      1     11    1
   12      3     12    1
   13      4     13    1
   14      6     14    1
   15      7     15    1
   16      8     16    1
   17      8     17    1
#
#	File Created by: Spartan'20 Export
#

@<TRIPOS>MOLECULE
M0333
26 26
SMALL
MULLIKEN_CHARGES


@<TRIPOS>ATOM
    1   C1         4.733400976     0.404948894    -0.490644544     C.3   1  noname   -0.374208
    2   C2         3.251723297     0.140776363    -0.424309949     C.2   1  noname    0.159249
    3   C3         2.318845310     1.176629205    -0.569933842     C.2   1  noname   -0.163313
    4   C4         0.947016427     0.938828941    -0.487794169     C.2   1  noname   -0.198753
    5   C5         0.451891054    -0.358774449    -0.247338129     C.2   1  noname    0.162971
    6   C6         1.386283014    -1.404514355    -0.129947544     C.2   1  noname   -0.161457
    7   C7         2.752974507    -1.153107671    -0.208221067     C.2   1  noname   -0.141058
    8   N8        -0.910948478    -0.666997980    -0.179877258     N.2   1  noname   -0.225008
    9   C9        -1.711749558     0.157726283     0.404001828     C.2   1  noname    0.028195
   10   N10       -3.069083329     0.034842009     0.375689271   N.pl3   1  noname    0.032177
   11   C11       -3.900990059     0.810792986     1.270624726     C.3   1  noname   -0.271754
   12   C12       -3.698698065    -1.074570157    -0.314522560     C.3   1  noname   -0.287508
   13   H13        5.136280547     0.680370107     0.498242711       H   1  noname    0.124240
   14   H14        5.283628119    -0.484164028    -0.830481573       H   1  noname    0.120761
   15   H15        4.965973845     1.231853465    -1.177154528       H   1  noname    0.120580
   16   H16        2.672125881     2.191933801    -0.771216236       H   1  noname    0.094220
   17   H17        0.244038154     1.758501370    -0.653677808       H   1  noname    0.102829
   18   H18        1.011861549    -2.417988397     0.026051742       H   1  noname    0.094846
   19   H19        3.454511572    -1.985856844    -0.108536596       H   1  noname    0.096521
   20   H20       -1.365749914     1.036760862     0.977121711       H   1  noname    0.078161
   21   H21       -4.765737302     1.225015971     0.727737108       H   1  noname    0.128371
   22   H22       -3.321313962     1.643971112     1.689338838       H   1  noname    0.126738
   23   H23       -4.284593832     0.198315373     2.107465712       H   1  noname    0.122533
   24   H24       -3.980439468    -1.880303927     0.387192164       H   1  noname    0.118039
   25   H25       -4.609512241    -0.723748140    -0.823781276       H   1  noname    0.119689
   26   H26       -2.991738044    -1.481240796    -1.046028732       H   1  noname    0.160024


@<TRIPOS>BOND
    1      1      2    1
    2      2      3    2
    3      3      4    1
    4      4      5    2
    5      5      6    1
    6      6      7    2
    7      5      8    1
    8      8      9    2
    9      9     10    1
   10     10     11    1
   11     10     12    1
   12      7      2    1
   13      1     13    1
   14      1     14    1
   15      1     15    1
   16      3     16    1
   17      4     17    1
   18      6     18    1
   19      7     19    1
   20      9     20    1
   21     11     21    1
   22     11     22    1
   23     11     23    1
   24     12     24    1
   25     12     25    1
   26     12     26    1
#
#	File Created by: Spartan'20 Export
#

@<TRIPOS>MOLECULE
M0334
18 18
SMALL
MULLIKEN_CHARGES


@<TRIPOS>ATOM
    1   C1         2.527191271     0.007271117    -0.885866454     C.3   1  noname   -0.375645
    2   C2         1.227242642    -0.018002712    -0.123955547     C.2   1  noname    0.146076
    3   C3         1.211096021    -0.008311633     1.276999512     C.2   1  noname   -0.138336
    4   C4         0.000116037    -0.002668699     1.971586278     C.2   1  noname   -0.114781
    5   C5        -1.210506996    -0.008079582     1.276450786     C.2   1  noname   -0.138274
    6   C6        -1.226587538    -0.017813727    -0.124510551     C.2   1  noname    0.145938
    7   C7         0.000486065    -0.025473327    -0.801330067     C.2   1  noname   -0.200421
    8   C8        -2.527189340     0.007450030    -0.885900135     C.3   1  noname   -0.375904
    9   H9         2.832311376     1.043117358    -1.108010148       H   1  noname    0.128963
   10   H10        2.441087758    -0.521140845    -1.846030175       H   1  noname    0.123366
   11   H11        3.340053386    -0.456415188    -0.309363481       H   1  noname    0.123634
   12   H12        2.154978194    -0.011513764     1.828098514       H   1  noname    0.100231
   13   H13       -0.000480903    -0.002314853     3.063743965       H   1  noname    0.105401
   14   H14       -2.154793633    -0.011087986     1.827091253       H   1  noname    0.100181
   15   H15        0.000414191    -0.041047280    -1.896188932       H   1  noname    0.096035
   16   H16       -2.834096041     1.043226450    -1.106137035       H   1  noname    0.129000
   17   H17       -2.441840265    -0.519360519    -1.847006054       H   1  noname    0.123387
   18   H18       -3.339482227    -0.457834841    -0.309671730       H   1  noname    0.123705


@<TRIPOS>BOND
    1      1      2    1
    2      2      3    2
    3      3      4    1
    4      4      5    2
    5      5      6    1
    6      6      7    2
    7      6      8    1
    8      7      2    1
    9      1      9    1
   10      1     10    1
   11      1     11    1
   12      3     12    1
   13      4     13    1
   14      5     14    1
   15      7     15    1
   16      8     16    1
   17      8     17    1
   18      8     18    1
#
#	File Created by: Spartan'20 Export
#

@<TRIPOS>MOLECULE
M0335
20 20
SMALL
MULLIKEN_CHARGES


@<TRIPOS>ATOM
    1   C1        -2.464930937    -1.404057184     0.031170568     C.3   1  noname   -0.381964
    2   C2        -1.484042860    -0.260205746     0.018889867     C.2   1  noname    0.135389
    3   C3        -1.923027058     1.069620793    -0.027046697     C.2   1  noname   -0.119467
    4   C4        -1.010950609     2.129747341    -0.068451051     C.2   1  noname   -0.089662
    5   C5         0.356625053     1.877177540    -0.064116030     C.2   1  noname   -0.131539
    6   C6         0.824497399     0.554672707    -0.016768297     C.2   1  noname    0.101526
    7   C7        -0.104356799    -0.497565137     0.025769116     C.2   1  noname   -0.209192
    8   C8         2.306566399     0.319792598    -0.010337482     C.2   1  noname    0.159585
    9   O9         3.092535404     1.259347916    -0.051279964     O.2   1  noname   -0.249011
   10   C10        2.813195079    -1.109665234     0.047901169     C.3   1  noname   -0.345310
   11   H11       -2.707552178    -1.725739616    -0.994810252       H   1  noname    0.134758
   12   H12       -2.059292818    -2.278683006     0.559268389       H   1  noname    0.126436
   13   H13       -3.409250926    -1.118760270     0.515477326       H   1  noname    0.128018
   14   H14       -2.996511945     1.277020727    -0.028072573       H   1  noname    0.110792
   15   H15       -1.376704416     3.157921818    -0.100327023       H   1  noname    0.115498
   16   H16        1.087011860     2.686534956    -0.091942527       H   1  noname    0.137797
   17   H17        0.245229797    -1.531658704     0.066738334       H   1  noname    0.113668
   18   H18        3.908407626    -1.097822194     0.040058390       H   1  noname    0.138364
   19   H19        2.445527663    -1.692390937    -0.810789970       H   1  noname    0.130647
   20   H20        2.457024265    -1.615288367     0.958668707       H   1  noname    0.130966


@<TRIPOS>BOND
    1      1      2    1
    2      2      3    2
    3      3      4    1
    4      4      5    2
    5      5      6    1
    6      6      7    2
    7      6      8    1
    8      8      9    2
    9      8     10    1
   10      7      2    1
   11      1     11    1
   12      1     12    1
   13      1     13    1
   14      3     14    1
   15      4     15    1
   16      5     16    1
   17      7     17    1
   18     10     18    1
   19     10     19    1
   20     10     20    1
#
#	File Created by: Spartan'20 Export
#

@<TRIPOS>MOLECULE
M0336
16 16
SMALL
MULLIKEN_CHARGES


@<TRIPOS>ATOM
    1   C1         2.419262258    -0.097318840    -0.125198660     C.3   1  noname   -0.370680
    2   C2         0.925808717     0.039307663     0.023118062     C.2   1  noname    0.161080
    3   C3         0.374499594     0.797228248     1.068297199     C.2   1  noname   -0.162871
    4   C4        -1.009731472     0.892050998     1.218120359     C.2   1  noname   -0.128355
    5   C5        -1.867009952     0.237371944     0.332449174     C.2   1  noname   -0.143469
    6   C6        -1.322684421    -0.519203086    -0.712704097     C.2   1  noname    0.198940
    7   C7         0.065344346    -0.615352090    -0.864492695     C.2   1  noname   -0.197061
    8   O8        -2.103452333    -1.188869376    -1.621605565     O.3   1  noname   -0.344467
    9   H9         2.941772108     0.789591680     0.259745570       H   1  noname    0.124075
   10   H10        2.789608283    -0.968419655     0.439642752       H   1  noname    0.129825
   11   H11        2.709686018    -0.240333469    -1.175659344       H   1  noname    0.125129
   12   H12        1.035212095     1.316833964     1.765343981       H   1  noname    0.102243
   13   H13       -1.430456663     1.486669307     2.031484075       H   1  noname    0.107177
   14   H14       -2.952016705     0.315801941     0.446660500       H   1  noname    0.094330
   15   H15        0.461093340    -1.210792811    -1.690087822       H   1  noname    0.109309
   16   H16       -3.036935214    -1.034566420    -1.395113490       H   1  noname    0.304904


@<TRIPOS>BOND
    1      1      2    1
    2      2      3    2
    3      3      4    1
    4      4      5    2
    5      5      6    1
    6      6      7    2
    7      6      8    1
    8      7      2    1
    9      1      9    1
   10      1     10    1
   11      1     11    1
   12      3     12    1
   13      4     13    1
   14      5     14    1
   15      7     15    1
   16      8     16    1
#
#	File Created by: Spartan'20 Export
#

@<TRIPOS>MOLECULE
M0337
17 17
SMALL
MULLIKEN_CHARGES


@<TRIPOS>ATOM
    1   C1         2.425639037     0.000166903    -1.022111116     C.3   1  noname   -0.365907
    2   C2         1.161438148    -0.000022481    -0.204518880     C.2   1  noname    0.153426
    3   C3         1.200807789    -0.000224167     1.196798832     C.2   1  noname   -0.153492
    4   C4         0.000034696    -0.000263286     1.902732687     C.2   1  noname   -0.064493
    5   C5        -1.200199632    -0.000144774     1.196085673     C.2   1  noname   -0.153345
    6   C6        -1.160377293    -0.000004351    -0.205205524     C.2   1  noname    0.153255
    7   N7         0.000668222     0.000078770    -0.885972524     N.2   1  noname   -0.163471
    8   C8        -2.425444898     0.000130307    -1.022101595     C.3   1  noname   -0.366386
    9   H9         3.041782476     0.886253345    -0.803760748       H   1  noname    0.122126
   10   H10        2.175233356    -0.000775500    -2.089437499       H   1  noname    0.132157
   11   H11        3.042944611    -0.884776141    -0.802439337       H   1  noname    0.122117
   12   H12        2.158825785    -0.000379237     1.720574310       H   1  noname    0.102805
   13   H13       -0.000802003    -0.000404307     2.994829934       H   1  noname    0.110457
   14   H14       -2.158748423    -0.000192364     1.719137645       H   1  noname    0.102784
   15   H15       -3.041818632     0.885989798    -0.803056566       H   1  noname    0.122225
   16   H16       -3.042940653    -0.884599513    -0.801681736       H   1  noname    0.122218
   17   H17       -2.177042588    -0.000833002    -2.089873557       H   1  noname    0.132204


@<TRIPOS>BOND
    1      1      2    1
    2      2      3    2
    3      3      4    1
    4      4      5    2
    5      5      6    1
    6      6      7    2
    7      6      8    1
    8      7      2    1
    9      1      9    1
   10      1     10    1
   11      1     11    1
   12      3     12    1
   13      4     13    1
   14      5     14    1
   15      8     15    1
   16      8     16    1
   17      8     17    1
#
#	File Created by: Spartan'20 Export
#

@<TRIPOS>MOLECULE
M0338
15 15
SMALL
MULLIKEN_CHARGES


@<TRIPOS>ATOM
    1   C1        -0.000239983     0.005732927     2.230454241     C.3   1  noname   -0.370906
    2   C2         0.000613203    -0.017674936     0.723760386     C.2   1  noname    0.144506
    3   C3         1.203514494    -0.014224891     0.003237023     C.2   1  noname   -0.141842
    4   C4         1.206419052    -0.000040882    -1.393677022     C.2   1  noname   -0.106799
    5   C5        -0.000023194     0.008293261    -2.097381586     C.2   1  noname   -0.091285
    6   C6        -1.206127241     0.000598176    -1.393268975     C.2   1  noname   -0.106911
    7   C7        -1.202390465    -0.013609075     0.003519047     C.2   1  noname   -0.141749
    8   H8        -0.890384592    -0.492208377     2.640470509       H   1  noname    0.124081
    9   H9         0.891039532    -0.488776499     2.641906093       H   1  noname    0.124028
   10   H10       -0.002850945     1.042238339     2.605327597       H   1  noname    0.129621
   11   H11        2.152109028    -0.024670411     0.546668394       H   1  noname    0.103124
   12   H12        2.154682355     0.000437523    -1.935226296       H   1  noname    0.107523
   13   H13       -0.000553691     0.015884023    -3.188964749       H   1  noname    0.107066
   14   H14       -2.154884742     0.001584713    -1.934085075       H   1  noname    0.107514
   15   H15       -2.150922810    -0.023563890     0.547260412       H   1  noname    0.103066


@<TRIPOS>BOND
    1      1      2    1
    2      2      3    2
    3      3      4    1
    4      4      5    2
    5      5      6    1
    6      6      7    2
    7      7      2    1
    8      1      8    1
    9      1      9    1
   10      1     10    1
   11      3     11    1
   12      4     12    1
   13      5     13    1
   14      6     14    1
   15      7     15    1
#
#	File Created by: Spartan'20 Export
#

@<TRIPOS>MOLECULE
M0339
26 26
SMALL
MULLIKEN_CHARGES


@<TRIPOS>ATOM
    1   C1        -1.598441126     0.498842818     2.203749400     C.3   1  noname   -0.346331
    2   C2        -1.921411046     0.626042559     0.741197805     C.2   1  noname    0.104950
    3   C3        -3.227859326     0.859749791     0.303085540     C.2   1  noname   -0.162885
    4   C4        -3.544069829     0.967180622    -1.054647289     C.2   1  noname   -0.104092
    5   C5        -2.528895892     0.849576920    -2.004238350     C.2   1  noname   -0.109345
    6   C6        -1.216247602     0.618721422    -1.592181744     C.2   1  noname   -0.208296
    7   C7        -0.895079022     0.487846663    -0.227113100     C.2   1  noname    0.120157
    8   N8         0.413302967     0.272890976     0.217479830     N.2   1  noname   -0.236868
    9   C9         1.156158282    -0.567703736    -0.418846730     C.2   1  noname    0.023369
   10   N10        2.487959057    -0.723250255    -0.178796630   N.pl3   1  noname    0.029285
   11   C11        3.135065720     0.049382923     0.864910048     C.3   1  noname   -0.286343
   12   C12        3.192792952    -1.888406372    -0.671278624     C.3   1  noname   -0.272415
   13   H13       -2.480991326     0.713391076     2.821576317       H   1  noname    0.110835
   14   H14       -0.786148512     1.184207156     2.488794032       H   1  noname    0.125669
   15   H15       -1.243593414    -0.514576331     2.449224693       H   1  noname    0.112705
   16   H16       -4.020350729     0.958326308     1.049887705       H   1  noname    0.095433
   17   H17       -4.573458307     1.155069942    -1.364826090       H   1  noname    0.100929
   18   H18       -2.753411136     0.953292145    -3.068018701       H   1  noname    0.098888
   19   H19       -0.411989190     0.571996861    -2.330266131       H   1  noname    0.108121
   20   H20        0.768735704    -1.230753357    -1.212906522       H   1  noname    0.086130
   21   H21        3.142712299    -0.493197351     1.827636611       H   1  noname    0.118356
   22   H22        4.174587896     0.261327218     0.574356672       H   1  noname    0.120581
   23   H23        2.585177756     0.987062107     1.004430876       H   1  noname    0.158204
   24   H24        2.622714170    -2.351158323    -1.487971434       H   1  noname    0.128070
   25   H25        4.183361564    -1.601132631    -1.057214994       H   1  noname    0.129781
   26   H26        3.339378088    -2.644729151     0.121976808       H   1  noname    0.122267


@<TRIPOS>BOND
    1      1      2    1
    2      2      3    2
    3      3      4    1
    4      4      5    2
    5      5      6    1
    6      6      7    2
    7      7      8    1
    8      8      9    2
    9      9     10    1
   10     10     11    1
   11     10     12    1
   12      7      2    1
   13      1     13    1
   14      1     14    1
   15      1     15    1
   16      3     16    1
   17      4     17    1
   18      5     18    1
   19      6     19    1
   20      9     20    1
   21     11     21    1
   22     11     22    1
   23     11     23    1
   24     12     24    1
   25     12     25    1
   26     12     26    1
#
#	File Created by: Spartan'20 Export
#

@<TRIPOS>MOLECULE
M0340
14 14
SMALL
MULLIKEN_CHARGES


@<TRIPOS>ATOM
    1   C1        -0.198663001     0.000027805     2.222072103     C.3   1  noname   -0.366613
    2   C2        -0.149763219    -0.000034409     0.717622030     C.2   1  noname    0.156862
    3   C3         1.077985519    -0.000125956     0.034978022     C.2   1  noname   -0.139285
    4   C4         1.085249977    -0.000072745    -1.356929864     C.2   1  noname   -0.087258
    5   C5        -0.136046741     0.000041264    -2.035085361     C.2   1  noname   -0.068786
    6   C6        -1.305091660     0.000083821    -1.276315893     C.2   1  noname   -0.064792
    7   N7        -1.326355819     0.000060811     0.065584554     N.2   1  noname   -0.152217
    8   H8        -1.241707355    -0.000450735     2.559490266       H   1  noname    0.135278
    9   H9         0.309795356    -0.884900997     2.635514626       H   1  noname    0.123196
   10   H10        0.308944374     0.885502966     2.635394629       H   1  noname    0.123203
   11   H11        2.013656928    -0.000250652     0.598905119       H   1  noname    0.104627
   12   H12        2.028470783    -0.000118470    -1.907805701       H   1  noname    0.113570
   13   H13       -0.182727148     0.000092354    -3.125346750       H   1  noname    0.110672
   14   H14       -2.283747992     0.000144943    -1.768077779       H   1  noname    0.107990


@<TRIPOS>BOND
    1      1      2    1
    2      2      3    2
    3      3      4    1
    4      4      5    2
    5      5      6    1
    6      6      7    2
    7      7      2    1
    8      1      8    1
    9      1      9    1
   10      1     10    1
   11      3     11    1
   12      4     12    1
   13      5     13    1
   14      6     14    1
#
#	File Created by: Spartan'20 Export
#

@<TRIPOS>MOLECULE
M0341
15 15
SMALL
MULLIKEN_CHARGES


@<TRIPOS>ATOM
    1   C1        -2.217907270     0.088647272     0.218818905     C.3   1  noname   -0.378237
    2   C2        -0.718850115     0.000787310     0.101362710     C.2   1  noname    0.196858
    3   C3         0.079455648    -0.371644638     1.192688469     C.2   1  noname   -0.190969
    4   C4         1.464990250    -0.402810972     1.030833641     C.2   1  noname   -0.046359
    5   C5         2.043963127    -0.076989809    -0.182058380     C.2   1  noname   -0.111260
    6   N6         1.267707878     0.286622349    -1.260513053       N   1  noname    0.323711
    7   O7         1.798860275     0.584446201    -2.379641155       O   1  noname   -0.424419
    8   C8        -0.101154619     0.319337798    -1.099899042     C.2   1  noname   -0.163011
    9   H9        -2.603523198    -0.685301304     0.896812967       H   1  noname    0.131820
   10   H10       -2.518195952     1.065916045     0.629742425       H   1  noname    0.139046
   11   H11       -2.713301858    -0.026420118    -0.755119372       H   1  noname    0.132975
   12   H12       -0.379937283    -0.631280196     2.146845834       H   1  noname    0.113724
   13   H13        2.117847031    -0.688215466     1.857084157       H   1  noname    0.121400
   14   H14        3.111116895    -0.078239208    -0.392556246       H   1  noname    0.135751
   15   H15       -0.631070807     0.615144738    -2.004401859       H   1  noname    0.129353


@<TRIPOS>BOND
    1      1      2    1
    2      2      3    2
    3      3      4    1
    4      4      5    2
    5      5      6    1
    6      6      7    1
    7      6      8    2
    8      8      2    1
    9      1      9    1
   10      1     10    1
   11      1     11    1
   12      3     12    1
   13      4     13    1
   14      5     14    1
   15      8     15    1
#
#	File Created by: Spartan'20 Export
#

@<TRIPOS>MOLECULE
M0342
14 14
SMALL
MULLIKEN_CHARGES


@<TRIPOS>ATOM
    1   C1        -2.076979957     0.007917415     0.262130183     C.3   1  noname   -0.368457
    2   C2        -0.596576923    -0.000428523    -0.004626866     C.2   1  noname    0.177563
    3   C3         0.346376292     0.027291779     1.032573008     C.2   1  noname   -0.174099
    4   C4         1.705302003     0.018683517     0.725448626     C.2   1  noname   -0.050998
    5   C5         2.086842859    -0.018231408    -0.618135781     C.2   1  noname   -0.063809
    6   N6         1.209171025    -0.044404004    -1.630237267     N.2   1  noname   -0.134009
    7   C7        -0.092381987    -0.035269848    -1.312013223     C.2   1  noname   -0.109285
    8   H8        -2.380006253    -0.862115646     0.864883040       H   1  noname    0.130820
    9   H9        -2.377643771     0.908685252     0.819264743       H   1  noname    0.130804
   10   H10       -2.652313385    -0.014684424    -0.674015728       H   1  noname    0.126039
   11   H11        0.013124134     0.056060724     2.073981932       H   1  noname    0.109060
   12   H12        2.460976346     0.040387108     1.512978829       H   1  noname    0.108991
   13   H13        3.145852613    -0.026527299    -0.895837441       H   1  noname    0.110546
   14   H14       -0.791742997    -0.057364642    -2.156394056       H   1  noname    0.102453


@<TRIPOS>BOND
    1      1      2    1
    2      2      3    2
    3      3      4    1
    4      4      5    2
    5      5      6    1
    6      6      7    2
    7      7      2    1
    8      1      8    1
    9      1      9    1
   10      1     10    1
   11      3     11    1
   12      4     12    1
   13      5     13    1
   14      7     14    1
#
#	File Created by: Spartan'20 Export
#

@<TRIPOS>MOLECULE
M0343
15 15
SMALL
MULLIKEN_CHARGES


@<TRIPOS>ATOM
    1   C1        -0.000317184    -0.007888547    -2.268292219     C.3   1  noname   -0.379411
    2   C2         0.000795414     0.017740771    -0.765623472     C.2   1  noname    0.109880
    3   C3        -1.186685075     0.013968779    -0.020616879     C.2   1  noname   -0.096315
    4   C4        -1.178100732     0.000853511     1.361843013     C.2   1  noname   -0.105893
    5   N5        -0.000039779    -0.007326959     2.076782370       N   1  noname    0.321377
    6   O6        -0.000552557    -0.017784650     3.352042346       O   1  noname   -0.430178
    7   C7         1.178517809     0.001735952     1.362397482     C.2   1  noname   -0.105824
    8   C8         1.188110555     0.014825188    -0.020215457     C.2   1  noname   -0.096455
    9   H9         0.890114954     0.486944984    -2.680534688       H   1  noname    0.129676
   10   H10       -0.003858140    -1.043181510    -2.647349292       H   1  noname    0.135747
   11   H11       -0.889137766     0.491677036    -2.678593794       H   1  noname    0.129732
   12   H12       -2.155525721     0.023035671    -0.524439168       H   1  noname    0.115176
   13   H13       -2.068057918    -0.000401089     1.987288292       H   1  noname    0.133775
   14   H14        2.067656869     0.001202774     1.988862137       H   1  noname    0.133767
   15   H15        2.157079270     0.024598090    -0.523550671       H   1  noname    0.115209


@<TRIPOS>BOND
    1      1      2    1
    2      2      3    2
    3      3      4    1
    4      4      5    2
    5      5      6    1
    6      5      7    1
    7      7      8    2
    8      8      2    1
    9      1      9    1
   10      1     10    1
   11      1     11    1
   12      3     12    1
   13      4     13    1
   14      7     14    1
   15      8     15    1
#
#	File Created by: Spartan'20 Export
#

@<TRIPOS>MOLECULE
M0344
17 17
SMALL
MULLIKEN_CHARGES


@<TRIPOS>ATOM
    1   C1         1.409558573     0.000150678    -1.368116702     C.3   1  noname   -0.361010
    2   C2         0.653761533     0.000053037    -0.069961451     C.2   1  noname    0.030054
    3   C3         1.322180147     0.000009874     1.158432311     C.2   1  noname   -0.091978
    4   C4         0.593717214    -0.000007079     2.348070963     C.2   1  noname   -0.066143
    5   N5        -0.745486833     0.000014755     2.390719539     N.2   1  noname   -0.134327
    6   C6        -1.380307232     0.000012075     1.211529630     C.2   1  noname   -0.112163
    7   C7        -0.756120496     0.000012986    -0.043218274     C.2   1  noname    0.131386
    8   C8        -1.576149531    -0.000135817    -1.302357704     C.3   1  noname   -0.352870
    9   H9         1.159578082     0.882542240    -1.979013495       H   1  noname    0.128816
   10   H10        1.158941537    -0.881687729    -1.979543285       H   1  noname    0.128785
   11   H11        2.494042359    -0.000291498    -1.198498120       H   1  noname    0.126140
   12   H12        2.414511392    -0.000034800     1.187330253       H   1  noname    0.097056
   13   H13        1.109894074    -0.000037369     3.313349755       H   1  noname    0.107261
   14   H14       -2.475991378     0.000002975     1.258560184       H   1  noname    0.097724
   15   H15       -2.650384008     0.000267468    -1.073049159       H   1  noname    0.126017
   16   H16       -1.366148542    -0.883701549    -1.926794358       H   1  noname    0.126048
   17   H17       -1.365596891     0.882829753    -1.927440086       H   1  noname    0.126016


@<TRIPOS>BOND
    1      1      2    1
    2      2      3    2
    3      3      4    1
    4      4      5    2
    5      5      6    1
    6      6      7    2
    7      7      8    1
    8      7      2    1
    9      1      9    1
   10      1     10    1
   11      1     11    1
   12      3     12    1
   13      4     13    1
   14      6     14    1
   15      8     15    1
   16      8     16    1
   17      8     17    1
#
#	File Created by: Spartan'20 Export
#

@<TRIPOS>MOLECULE
M0345
19 20
SMALL
MULLIKEN_CHARGES


@<TRIPOS>ATOM
    1   C1         1.995209923     0.000105901     1.712740925     C.3   1  noname   -0.317570
    2   N2         0.625256894    -0.000053065     1.250958291   N.pl3   1  noname    0.085524
    3   C3         0.236700443    -0.000051987    -0.080345947     C.2   1  noname    0.085872
    4   C4         0.973115141    -0.000136095    -1.263155306     C.2   1  noname   -0.174786
    5   C5         0.257128223    -0.000088115    -2.467375112     C.2   1  noname   -0.105101
    6   C6        -1.143993922     0.000038569    -2.483676228     C.2   1  noname   -0.103361
    7   C7        -1.885917695     0.000076856    -1.295965698     C.2   1  noname   -0.147531
    8   C8        -1.175354204     0.000011681    -0.099517608     C.2   1  noname    0.118820
    9   N9        -1.570150604     0.000000141     1.225363516   N.pl3   1  noname   -0.151944
   10   C10       -0.486995138    -0.000050904     2.083651121     C.2   1  noname    0.126284
   11   S11       -0.539041591    -0.000125340     3.741022098     S.2   1  noname   -0.349451
   12   H12        2.519337039     0.897090133     1.351390643       H   1  noname    0.136421
   13   H13        1.973144507    -0.000133956     2.809863293       H   1  noname    0.160854
   14   H14        2.519651739    -0.896535529     1.351006876       H   1  noname    0.136410
   15   H15        2.063380858    -0.000265728    -1.256465180       H   1  noname    0.121620
   16   H16        0.803079754    -0.000149371    -3.411747321       H   1  noname    0.113007
   17   H17       -1.669948434     0.000101514    -3.439448621       H   1  noname    0.113851
   18   H18       -2.976673014     0.000161935    -1.311451818       H   1  noname    0.115083
   19   H19       -2.517929917     0.000003360     1.583152076       H   1  noname    0.220416


@<TRIPOS>BOND
    1      1      2    1
    2      2      3    1
    3      3      4    2
    4      4      5    1
    5      5      6    2
    6      6      7    1
    7      7      8    2
    8      8      9    1
    9      9     10    1
   10     10     11    2
   11     10      2    1
   12      8      3    1
   13      1     12    1
   14      1     13    1
   15      1     14    1
   16      4     15    1
   17      5     16    1
   18      6     17    1
   19      7     18    1
   20      9     19    1
#
#	File Created by: Spartan'20 Export
#

@<TRIPOS>MOLECULE
M0346
27 29
SMALL
MULLIKEN_CHARGES


@<TRIPOS>ATOM
    1   C1         2.471518700    -0.003346532     0.288823849     C.3   1  noname   -0.324211
    2   N2         1.027123840     0.001248717     0.099540434   N.pl3   1  noname    0.115910
    3   C3         0.346267066     1.214269312     0.015251055     C.2   1  noname    0.086246
    4   C4         1.039088630     2.441797160    -0.099125521     C.2   1  noname   -0.183535
    5   C5         0.343631427     3.642226722    -0.155166731     C.2   1  noname   -0.108209
    6   C6        -1.057877680     3.670593550    -0.104465754     C.2   1  noname   -0.081783
    7   C7        -1.747265181     2.472843225    -0.015891701     C.2   1  noname   -0.179355
    8   C8        -1.072511835     1.242127201     0.038202584     C.2   1  noname    0.078648
    9   C9        -1.862490164     0.000845245     0.111208776     C.2   1  noname    0.142873
   10   O10       -3.096859219     0.000717728     0.200239297     O.2   1  noname   -0.303763
   11   C11       -1.073484324    -1.240244921     0.037144616     C.2   1  noname    0.078528
   12   C12        0.345062913    -1.210586086     0.013528076     C.2   1  noname    0.088538
   13   C13        1.038855219    -2.438029247    -0.101705857     C.2   1  noname   -0.184467
   14   C14        0.345331138    -3.639522363    -0.156799356     C.2   1  noname   -0.108687
   15   C15       -1.055997562    -3.669697809    -0.104494132     C.2   1  noname   -0.081482
   16   C16       -1.746699635    -2.472529388    -0.016009018     C.2   1  noname   -0.180187
   17   H17        2.760230110    -0.881283044     0.877024164       H   1  noname    0.142963
   18   H18        3.021990804    -0.016275825    -0.666461613       H   1  noname    0.142210
   19   H19        2.769549007     0.881877629     0.860292573       H   1  noname    0.142459
   20   H20        2.124687209     2.464554602    -0.175046170       H   1  noname    0.113245
   21   H21        0.905892100     4.572970136    -0.251163047       H   1  noname    0.113126
   22   H22       -1.594102564     4.619358185    -0.147233464       H   1  noname    0.114762
   23   H23       -2.837806046     2.432930884     0.014010777       H   1  noname    0.141856
   24   H24        2.124427179    -2.461107792    -0.178336224       H   1  noname    0.114209
   25   H25        0.909002015    -4.569667091    -0.252731129       H   1  noname    0.113120
   26   H26       -1.590319417    -4.619778517    -0.145714255       H   1  noname    0.114775
   27   H27       -2.837243729    -2.436291679     0.015077767       H   1  noname    0.141774


@<TRIPOS>BOND
    1      1      2    1
    2      2      3    1
    3      3      4    2
    4      4      5    1
    5      5      6    2
    6      6      7    1
    7      7      8    2
    8      8      9    1
    9      9     10    2
   10      9     11    1
   11     11     12    2
   12     12     13    1
   13     13     14    2
   14     14     15    1
   15     15     16    2
   16     12      2    1
   17      8      3    1
   18     16     11    1
   19      1     17    1
   20      1     18    1
   21      1     19    1
   22      4     20    1
   23      5     21    1
   24      6     22    1
   25      7     23    1
   26     13     24    1
   27     14     25    1
   28     15     26    1
   29     16     27    1
#
#	File Created by: Spartan'20 Export
#

@<TRIPOS>MOLECULE
M0347
22 23
SMALL
MULLIKEN_CHARGES


@<TRIPOS>ATOM
    1   C1        -2.480860463     0.000125615     1.435446959     C.3   1  noname   -0.316966
    2   N2        -1.104077961    -0.000056797     0.991999625   N.pl3   1  noname    0.075863
    3   C3        -0.701848440    -0.000058044    -0.331653153     C.2   1  noname    0.083451
    4   C4        -1.428450590    -0.000128369    -1.520004235     C.2   1  noname   -0.174276
    5   C5        -0.701800936    -0.000091600    -2.717412370     C.2   1  noname   -0.101733
    6   C6         0.699352873     0.000003782    -2.718771179     C.2   1  noname   -0.101035
    7   C7         1.430532262     0.000030160    -1.523385873     C.2   1  noname   -0.174504
    8   C8         0.708293725    -0.000013882    -0.332021349     C.2   1  noname    0.082097
    9   N9         1.106736281    -0.000029597     0.992990091   N.pl3   1  noname    0.075810
   10   C10        0.000627336    -0.000067653     1.835488371     C.2   1  noname    0.099985
   11   S11       -0.003398125    -0.000144887     3.497241247     S.2   1  noname   -0.362044
   12   C12        2.481754733     0.000033292     1.438880185     C.3   1  noname   -0.316131
   13   H13       -2.475234343    -0.000081891     2.532453279       H   1  noname    0.160030
   14   H14       -3.001869186    -0.896034169     1.066534175       H   1  noname    0.135485
   15   H15       -3.001541662     0.896616996     1.066868924       H   1  noname    0.135495
   16   H16       -2.519030621    -0.000239431    -1.523321242       H   1  noname    0.120918
   17   H17       -1.239788172    -0.000138462    -3.666621247       H   1  noname    0.111716
   18   H18        1.233246392     0.000051349    -3.670108938       H   1  noname    0.111727
   19   H19        2.520769782     0.000083216    -1.531787889       H   1  noname    0.120944
   20   H20        3.001619759     0.896952365     1.070858748       H   1  noname    0.135262
   21   H21        3.001809735    -0.896614651     1.070473164       H   1  noname    0.135257
   22   H22        2.473157620    -0.000197341     2.535852710       H   1  noname    0.159778


@<TRIPOS>BOND
    1      1      2    1
    2      2      3    1
    3      3      4    2
    4      4      5    1
    5      5      6    2
    6      6      7    1
    7      7      8    2
    8      8      9    1
    9      9     10    1
   10     10     11    2
   11      9     12    1
   12     10      2    1
   13      8      3    1
   14      1     13    1
   15      1     14    1
   16      1     15    1
   17      4     16    1
   18      5     17    1
   19      6     18    1
   20      7     19    1
   21     12     20    1
   22     12     21    1
   23     12     22    1
#
#	File Created by: Spartan'20 Export
#

@<TRIPOS>MOLECULE
M0348
13 13
SMALL
MULLIKEN_CHARGES


@<TRIPOS>ATOM
    1   C1         1.852321148    -0.217643178     0.032397487     C.3   1  noname   -0.306436
    2   N2         0.410309387    -0.087100021     0.004559927   N.pl3   1  noname    0.083084
    3   C3        -0.489926365    -1.130546593    -0.162285000     C.2   1  noname   -0.118466
    4   C4        -1.742633185    -0.602242514    -0.136468978     C.2   1  noname   -0.058264
    5   N5        -1.588024858     0.760772932     0.044728775   N.pl3   1  noname   -0.146682
    6   C6        -0.259836809     1.119563797     0.136216616     C.2   1  noname    0.116815
    7   S7         0.363317049     2.650199542     0.354467136     S.2   1  noname   -0.386279
    8   H8         2.237106145    -0.511551353    -0.955358292       H   1  noname    0.135670
    9   H9         2.150828340    -0.966598133     0.779142572       H   1  noname    0.132314
   10   H10        2.263160461     0.764216392     0.302785349       H   1  noname    0.159306
   11   H11       -0.163213871    -2.156671496    -0.282842600       H   1  noname    0.137750
   12   H12       -2.711395756    -1.077600505    -0.227774930       H   1  noname    0.146426
   13   H13       -2.322011685     1.455201131     0.110431938       H   1  noname    0.224556


@<TRIPOS>BOND
    1      1      2    1
    2      2      3    1
    3      3      4    2
    4      4      5    1
    5      5      6    1
    6      6      7    2
    7      6      2    1
    8      1      8    1
    9      1      9    1
   10      1     10    1
   11      3     11    1
   12      4     12    1
   13      5     13    1
#
#	File Created by: Spartan'20 Export
#

@<TRIPOS>MOLECULE
M0349
18 18
SMALL
MULLIKEN_CHARGES


@<TRIPOS>ATOM
    1   C1         2.358898395     1.070973869    -0.204566307     C.3   1  noname   -0.320967
    2   N2         1.169184610     0.230313162    -0.093328097    N.am   1  noname    0.049608
    3   C3         1.293763742    -1.130211204     0.004846521     C.2   1  noname   -0.038963
    4   C4         0.228933284    -1.956888309     0.131164897     C.2   1  noname   -0.188360
    5   C5        -1.117120818    -1.421376142     0.171647869     C.2   1  noname    0.193104
    6   O6        -2.138475228    -2.092000872     0.289222670     O.2   1  noname   -0.305702
    7   N7        -1.178183431    -0.000348211     0.060900329    N.am   1  noname    0.009384
    8   C8        -0.089699714     0.857823989    -0.062744693     C.2   1  noname    0.219538
    9   O9        -0.215312903     2.074877958    -0.141266216     O.2   1  noname   -0.325871
   10   C10       -2.492255013     0.641820093     0.085966817     C.3   1  noname   -0.288334
   11   H11        2.971467668     0.748149684    -1.057760599       H   1  noname    0.138196
   12   H12        2.026832537     2.102151934    -0.359481579       H   1  noname    0.178510
   13   H13        2.956413728     1.015694192     0.716840465       H   1  noname    0.139700
   14   H14        2.319068462    -1.502186166    -0.026436586       H   1  noname    0.133506
   15   H15        0.349008239    -3.034062576     0.207309106       H   1  noname    0.131909
   16   H16       -2.562323651     1.327403040     0.940593441       H   1  noname    0.135563
   17   H17       -2.642542369     1.222448407    -0.833101776       H   1  noname    0.136278
   18   H18       -3.237657538    -0.154582849     0.170193737       H   1  noname    0.165479


@<TRIPOS>BOND
    1      1      2    1
    2      2      3    1
    3      3      4    2
    4      4      5    1
    5      5      6    2
    6      5      7    am
    7      7      8    am
    8      8      9    2
    9      7     10    1
   10      8      2    am
   11      1     11    1
   12      1     12    1
   13      1     13    1
   14      3     14    1
   15      4     15    1
   16     10     16    1
   17     10     17    1
   18     10     18    1
#
#	File Created by: Spartan'20 Export
#

@<TRIPOS>MOLECULE
M0350
13 13
SMALL
MULLIKEN_CHARGES


@<TRIPOS>ATOM
    1   C1        -0.001189939     0.014025192    -1.877652371     C.3   1  noname   -0.308252
    2   N2         0.003053534    -0.048078778    -0.429200543   N.pl3   1  noname    0.104006
    3   C3        -1.118285076    -0.020246321     0.367344108     C.2   1  noname   -0.132468
    4   C4        -0.710581679     0.014242707     1.688765118     C.2   1  noname   -0.142796
    5   C5         0.711483170     0.013427961     1.690503563     C.2   1  noname   -0.141635
    6   C6         1.123750447    -0.021329706     0.369863097     C.2   1  noname   -0.134278
    7   H7         0.888125239    -0.493160466    -2.273602613       H   1  noname    0.136432
    8   H8        -0.891609015    -0.497541808    -2.266619897       H   1  noname    0.136481
    9   H9        -0.006568949     1.054636822    -2.239069111       H   1  noname    0.138361
   10   H10       -2.110610540    -0.029824643    -0.074029091       H   1  noname    0.115833
   11   H11       -1.367324530     0.023822019     2.553691175       H   1  noname    0.102169
   12   H12        1.363053260     0.022120514     2.559070845       H   1  noname    0.102224
   13   H13        2.116704080    -0.032093495    -0.069064282       H   1  noname    0.115985


@<TRIPOS>BOND
    1      1      2    1
    2      2      3    1
    3      3      4    2
    4      4      5    1
    5      5      6    2
    6      6      2    1
    7      1      7    1
    8      1      8    1
    9      1      9    1
   10      3     10    1
   11      4     11    1
   12      5     12    1
   13      6     13    1
#
#	File Created by: Spartan'20 Export
#

@<TRIPOS>MOLECULE
M0351
15 15
SMALL
MULLIKEN_CHARGES


@<TRIPOS>ATOM
    1   C1         0.693015800     0.000032919     2.041865554     C.3   1  noname   -0.323360
    2   N2         0.225646191    -0.000080857     0.656345783    N.am   1  noname    0.092260
    3   C3         1.137047545    -0.000165489    -0.357319694     C.2   1  noname   -0.065124
    4   C4         0.763392971    -0.000107783    -1.674403854     C.2   1  noname   -0.124299
    5   C5        -0.623557172     0.000043560    -1.975118181     C.2   1  noname   -0.066134
    6   C6        -1.554495158     0.000096885    -0.971036346     C.2   1  noname   -0.166279
    7   C7        -1.190374353     0.000046066     0.428865040     C.2   1  noname    0.179676
    8   O8        -1.977889425     0.000114939     1.378286310     O.2   1  noname   -0.337522
    9   H9        -0.193027144    -0.000648054     2.685906525       H   1  noname    0.176370
   10   H10        1.294961471     0.897611986     2.241425425       H   1  noname    0.136219
   11   H11        1.296187578    -0.896776418     2.241158430       H   1  noname    0.136196
   12   H12        2.183273678    -0.000306406    -0.046927882       H   1  noname    0.126186
   13   H13        1.521479575    -0.000179261    -2.454806164       H   1  noname    0.120944
   14   H14       -0.950984050     0.000113571    -3.017520719       H   1  noname    0.114778
   15   H15       -2.624677507     0.000204343    -1.176720228       H   1  noname    0.119789


@<TRIPOS>BOND
    1      1      2    1
    2      2      3    1
    3      3      4    2
    4      4      5    1
    5      5      6    2
    6      6      7    1
    7      7      8    2
    8      7      2    am
    9      1      9    1
   10      1     10    1
   11      1     11    1
   12      3     12    1
   13      4     13    1
   14      5     14    1
   15      6     15    1
#
#	File Created by: Spartan'20 Export
#

@<TRIPOS>MOLECULE
M0352
12 12
SMALL
MULLIKEN_CHARGES


@<TRIPOS>ATOM
    1   C1        -0.205641361     0.000007396    -1.850341327     C.3   1  noname   -0.282170
    2   N2        -0.126380655    -0.000021252    -0.404180611   N.pl3   1  noname    0.194571
    3   C3         0.990316198    -0.000001975     0.375647549     C.2   1  noname   -0.132376
    4   C4         0.557170739     0.000021201     1.693093623     C.2   1  noname   -0.123823
    5   C5        -0.850008985    -0.000017604     1.598349963     C.2   1  noname   -0.116507
    6   N6        -1.262926383    -0.000054179     0.323403556     N.2   1  noname   -0.208398
    7   H7        -0.741803465     0.893356987    -2.199561910       H   1  noname    0.141725
    8   H8         0.809924689    -0.000049552    -2.263089108       H   1  noname    0.127713
    9   H9        -0.741902879    -0.893274171    -2.199583019       H   1  noname    0.141727
   10   H10        1.985819384    -0.000005154    -0.057688686       H   1  noname    0.123488
   11   H11        1.172583216     0.000060584     2.586365439       H   1  noname    0.117954
   12   H12       -1.587150498    -0.000022281     2.397584531       H   1  noname    0.107633


@<TRIPOS>BOND
    1      1      2    1
    2      2      3    1
    3      3      4    2
    4      4      5    1
    5      5      6    2
    6      6      2    1
    7      1      7    1
    8      1      8    1
    9      1      9    1
   10      3     10    1
   11      4     11    1
   12      5     12    1
#
#	File Created by: Spartan'20 Export
#

@<TRIPOS>MOLECULE
M0353
12 12
SMALL
MULLIKEN_CHARGES


@<TRIPOS>ATOM
    1   C1        -0.128952725     0.000045507    -1.683803695     C.3   1  noname   -0.314765
    2   N2        -0.089342172    -0.000055307    -0.230751156   N.pl3   1  noname    0.086026
    3   C3         1.035252229     0.000129864     0.571414790     C.2   1  noname   -0.120922
    4   C4         0.566807877     0.000104187     1.867807376     C.2   1  noname   -0.111054
    5   N5        -0.809100011    -0.000138426     1.884265639     N.2   1  noname   -0.193628
    6   C6        -1.167297600    -0.000255093     0.612100849     C.2   1  noname   -0.041778
    7   H7        -0.645809226     0.894717349    -2.060092795       H   1  noname    0.145639
    8   H8         0.895407592    -0.000741951    -2.072451854       H   1  noname    0.141307
    9   H9        -0.647167457    -0.893808783    -2.060159136       H   1  noname    0.145635
   10   H10        2.034150932     0.000254497     0.147786378       H   1  noname    0.122596
   11   H11        1.144756616     0.000240289     2.787690890       H   1  noname    0.113571
   12   H12       -2.188706054    -0.000492132     0.236192716       H   1  noname    0.123607


@<TRIPOS>BOND
    1      1      2    1
    2      2      3    1
    3      3      4    2
    4      4      5    1
    5      5      6    2
    6      6      2    1
    7      1      7    1
    8      1      8    1
    9      1      9    1
   10      3     10    1
   11      4     11    1
   12      6     12    1
#
#	File Created by: Spartan'20 Export
#

@<TRIPOS>MOLECULE
M0354
4 3
SMALL
MULLIKEN_CHARGES


@<TRIPOS>ATOM
    1   N1        -0.000028887     0.000000008     0.293178400     N.3   1  noname   -0.676065
    2   H2         0.944938005    -0.000000020    -0.097734212       H   1  noname    0.226126
    3   H3        -0.472454544    -0.818414411    -0.097722096       H   1  noname    0.226141
    4   H4        -0.472454574     0.818414423    -0.097722092       H   1  noname    0.226141


@<TRIPOS>BOND
    1      1      2    1
    2      1      3    1
    3      1      4    1
#
#	File Created by: Spartan'20 Export
#

@<TRIPOS>MOLECULE
M0355
3 2
SMALL
MULLIKEN_CHARGES


@<TRIPOS>ATOM
    1   O1         0.000000000     0.000000000     0.397077823     O.3   1  noname   -0.621567
    2   H2         0.000000000    -0.766829658    -0.198538912       H   1  noname    0.311919
    3   H3         0.000000000     0.766829658    -0.198538912       H   1  noname    0.311919


@<TRIPOS>BOND
    1      1      2    1
    2      1      3    1
#
#	File Created by: Spartan'20 Export
#

@<TRIPOS>MOLECULE
M0356
5 4
SMALL
MULLIKEN_CHARGES


@<TRIPOS>ATOM
    1   O1        -0.000332208     0.000014271     1.686588585     O.2   1  noname   -0.347713
    2   P2        -0.000452334    -0.000000633     0.217357992       P   1  noname    0.746423
    3   Cl3        0.919129081     1.589873651    -0.634843077      Cl   1  noname   -0.072192
    4   Cl4       -1.837461645    -0.000011457    -0.634240120      Cl   1  noname   -0.072178
    5   Cl5        0.919117105    -1.589875831    -0.634863380      Cl   1  noname   -0.072193


@<TRIPOS>BOND
    1      1      2    2
    2      2      3    1
    3      2      4    1
    4      2      5    1
#
#	File Created by: Spartan'20 Export
#

@<TRIPOS>MOLECULE
M0357
4 3
SMALL
MULLIKEN_CHARGES


@<TRIPOS>ATOM
    1   O1        -1.490011428     0.000010549     0.402778301     O.2   1  noname   -0.244333
    2   S2        -0.347472398    -0.000002588    -0.499985943       S   1  noname    0.578061
    3   Cl3        0.918748405    -1.608143310     0.048601911      Cl   1  noname   -0.112755
    4   Cl4        0.918735421     1.608135350     0.048605730      Cl   1  noname   -0.112750


@<TRIPOS>BOND
    1      1      2    2
    2      2      3    1
    3      2      4    1
#
#	File Created by: Spartan'20 Export
#

@<TRIPOS>MOLECULE
M0358
12 12
SMALL
MULLIKEN_CHARGES


@<TRIPOS>ATOM
    1   C1         0.000572116     0.000000000    -1.405772252     C.2   1  noname   -0.249838
    2   C2        -1.184429269     0.000000000    -0.667831666     C.2   1  noname    0.231601
    3   C3        -1.186792918     0.000000000     0.717344628     C.2   1  noname   -0.167193
    4   N4         0.000027603     0.000000000     1.420331025       N   1  noname    0.328283
    5   O5        -0.000527413     0.000000000     2.688774351       O   1  noname   -0.395600
    6   C6         1.187442195     0.000000000     0.717649188     C.2   1  noname   -0.167328
    7   C7         1.185153706     0.000000000    -0.667598710     C.2   1  noname    0.231722
    8   Cl8        2.711593180     0.000000000    -1.489899712      Cl   1  noname   -0.063750
    9   Cl9       -2.712686406     0.000000000    -1.488296561      Cl   1  noname   -0.063947
   10   H10       -0.000014115     0.000000000    -2.493241965       H   1  noname    0.142388
   11   H11       -2.080845301     0.000000000     1.333608171       H   1  noname    0.154237
   12   H12        2.080506622     0.000000000     1.334933504       H   1  noname    0.154232


@<TRIPOS>BOND
    1      1      2    2
    2      2      3    1
    3      3      4    2
    4      4      5    1
    5      4      6    1
    6      6      7    2
    7      7      8    1
    8      2      9    1
    9      7      1    1
   10      1     10    1
   11      3     11    1
   12      6     12    1
#
#	File Created by: Spartan'20 Export
#

@<TRIPOS>MOLECULE
M0359
11 11
SMALL
MULLIKEN_CHARGES


@<TRIPOS>ATOM
    1   C1         0.000509591     0.000000000    -1.146803124     C.2   1  noname   -0.236153
    2   C2        -1.189529666     0.000000000    -0.420858802     C.2   1  noname    0.211519
    3   C3        -1.150870545     0.000000000     0.977607534     C.2   1  noname   -0.098882
    4   N4         0.000015581     0.000000000     1.657608879     N.2   1  noname   -0.119400
    5   C5         1.151373785     0.000000000     0.977933507     C.2   1  noname   -0.098837
    6   C6         1.190117826     0.000000000    -0.420533376     C.2   1  noname    0.211624
    7   Cl7        2.716840581     0.000000000    -1.250465251      Cl   1  noname   -0.076972
    8   Cl8       -2.717995269     0.000000000    -1.249187637      Cl   1  noname   -0.077162
    9   H9         0.000047742     0.000000000    -2.236415961       H   1  noname    0.139805
   10   H10       -2.078671427     0.000000000     1.554848133       H   1  noname    0.131880
   11   H11        2.078161801     0.000000000     1.556266098       H   1  noname    0.131940


@<TRIPOS>BOND
    1      1      2    2
    2      2      3    1
    3      3      4    2
    4      4      5    1
    5      5      6    2
    6      6      7    1
    7      2      8    1
    8      6      1    1
    9      1      9    1
   10      3     10    1
   11      5     11    1
#
#	File Created by: Spartan'20 Export
#

@<TRIPOS>MOLECULE
M0360
10 10
SMALL
MULLIKEN_CHARGES


@<TRIPOS>ATOM
    1   C1        -1.194398815     0.000000000     0.328698342     C.2   1  noname   -0.086776
    2   C2         0.000746189     0.000000000     1.048799211     C.2   1  noname    0.150680
    3   C3         1.195981381     0.000000000     0.328398507     C.2   1  noname   -0.086785
    4   N4         1.199509831     0.000000000    -1.010124359     N.2   1  noname   -0.139436
    5   C5        -0.000076296     0.000000000    -1.606543287     C.2   1  noname    0.043056
    6   N6        -1.199422425     0.000000000    -1.009637117     N.2   1  noname   -0.139388
    7   Br7       -0.002981729     0.000000000     2.945832851      Br   1  noname   -0.043605
    8   H8        -2.162309571     0.000000000     0.838072923       H   1  noname    0.139229
    9   H9         2.164034146     0.000000000     0.837086777       H   1  noname    0.139243
   10   H10       -0.001082711     0.000000000    -2.700583849       H   1  noname    0.132320


@<TRIPOS>BOND
    1      1      2    2
    2      2      3    1
    3      3      4    2
    4      4      5    1
    5      5      6    2
    6      2      7    1
    7      6      1    1
    8      1      8    1
    9      3      9    1
   10      5     10    1
#
#	File Created by: Spartan'20 Export
#

@<TRIPOS>MOLECULE
M0361
14 14
SMALL
MULLIKEN_CHARGES


@<TRIPOS>ATOM
    1   C1         0.576816905     1.590351771    -0.183365941     C.2   1  noname   -0.067431
    2   C2        -0.705887129     1.052747314    -0.127432994     C.2   1  noname   -0.213167
    3   C3        -0.889186927    -0.337086766     0.002912888     C.2   1  noname    0.312321
    4   C4         0.245932202    -1.164995641     0.077244043     C.2   1  noname   -0.285518
    5   C5         1.516129162    -0.599340203     0.018516614     C.2   1  noname    0.231052
    6   C6         1.710606094     0.776369702    -0.112385569     C.2   1  noname   -0.200486
    7   Cl7        2.905211930    -1.656239306     0.114509186      Cl   1  noname   -0.114486
    8   N8        -2.164981327    -0.891895490    -0.006794570     N.3   1  noname   -0.402449
    9   H9         0.699765215     2.670196417    -0.284611675       H   1  noname    0.103056
   10   H10       -1.578708382     1.706506691    -0.190226416       H   1  noname    0.091554
   11   H11        0.137465587    -2.246099363     0.176394301       H   1  noname    0.096864
   12   H12        2.716699494     1.190514746    -0.154266909       H   1  noname    0.107715
   13   H13       -2.251130223    -1.819292846     0.397351881       H   1  noname    0.227777
   14   H14       -2.918732601    -0.271737025     0.272155161       H   1  noname    0.227431


@<TRIPOS>BOND
    1      1      2    2
    2      2      3    1
    3      3      4    2
    4      4      5    1
    5      5      6    2
    6      5      7    1
    7      3      8    1
    8      6      1    1
    9      1      9    1
   10      2     10    1
   11      4     11    1
   12      6     12    1
   13      8     13    1
   14      8     14    1
#
#	File Created by: Spartan'20 Export
#

@<TRIPOS>MOLECULE
M0362
13 13
SMALL
MULLIKEN_CHARGES


@<TRIPOS>ATOM
    1   C1        -1.214972624     0.000000000     0.410336607     C.2   1  noname   -0.149386
    2   C2        -1.216619026     0.000000000    -0.980453616     C.2   1  noname   -0.158171
    3   C3         0.000192441     0.000000000    -1.668143444     C.2   1  noname    0.218278
    4   C4         1.217704325     0.000000000    -0.981379270     C.2   1  noname   -0.158003
    5   C5         1.216868041     0.000000000     0.409645110     C.2   1  noname   -0.149722
    6   C6         0.001073988     0.000000000     1.117132770     C.2   1  noname    0.265841
    7   C7        -0.000525219     0.000000000     2.545003033     C.1   1  noname   -0.287482
    8   N8        -0.004124401     0.000000000     3.711129181     N.1   1  noname    0.077180
    9   Cl9       -0.002025160     0.000000000    -3.405773268      Cl   1  noname   -0.079731
   10   H10       -2.157733391     0.000000000     0.958014413       H   1  noname    0.141885
   11   H11       -2.154491254     0.000000000    -1.535363646       H   1  noname    0.135703
   12   H12        2.154953868     0.000000000    -1.537158245       H   1  noname    0.135742
   13   H13        2.159698412     0.000000000     0.957010376       H   1  noname    0.141860


@<TRIPOS>BOND
    1      1      2    2
    2      2      3    1
    3      3      4    2
    4      4      5    1
    5      5      6    2
    6      6      7    1
    7      7      8    3
    8      3      9    1
    9      6      1    1
   10      1     10    1
   11      2     11    1
   12      4     12    1
   13      5     13    1
#
#	File Created by: Spartan'20 Export
#

@<TRIPOS>MOLECULE
M0363
14 14
SMALL
MULLIKEN_CHARGES


@<TRIPOS>ATOM
    1   C1        -1.205401232     0.000000000     0.293115333     C.2   1  noname   -0.137318
    2   C2        -1.297546120     0.000000000    -1.092455514     C.2   1  noname   -0.140731
    3   C3        -0.121017196     0.000000000    -1.854354072     C.2   1  noname    0.217270
    4   C4         1.139058683     0.000000000    -1.249307386     C.2   1  noname   -0.166491
    5   C5         1.214952695     0.000000000     0.140753161     C.2   1  noname   -0.116350
    6   C6         0.050848169     0.000000000     0.922065982     C.2   1  noname    0.147391
    7   C7         0.159816960     0.000000000     2.396527263     C.2   1  noname    0.048464
    8   O8        -0.784749015     0.000000000     3.167165877     O.2   1  noname   -0.227694
    9   Cl9       -0.232852838     0.000000000    -3.588896743      Cl   1  noname   -0.083806
   10   H10       -2.101585251     0.000000000     0.916527998       H   1  noname    0.145253
   11   H11       -2.265609840     0.000000000    -1.593959324       H   1  noname    0.132866
   12   H12        2.037257787     0.000000000    -1.866202877       H   1  noname    0.131179
   13   H13        2.192544041     0.000000000     0.629750681       H   1  noname    0.123901
   14   H14        1.214283159     0.000000000     2.779269623       H   1  noname    0.058434


@<TRIPOS>BOND
    1      1      2    2
    2      2      3    1
    3      3      4    2
    4      4      5    1
    5      5      6    2
    6      6      7    1
    7      7      8    2
    8      3      9    1
    9      6      1    1
   10      1     10    1
   11      2     11    1
   12      4     12    1
   13      5     13    1
   14      7     14    1
#
#	File Created by: Spartan'20 Export
#

@<TRIPOS>MOLECULE
M0364
13 13
SMALL
MULLIKEN_CHARGES


@<TRIPOS>ATOM
    1   C1        -1.280522778     0.000000000    -0.432651875     C.2   1  noname   -0.159858
    2   C2        -1.258443319     0.000000000     0.960538647     C.2   1  noname   -0.156173
    3   C3        -0.032765091     0.000000000     1.619179714     C.2   1  noname    0.286176
    4   C4         1.170087070     0.000000000     0.922742436     C.2   1  noname   -0.181359
    5   C5         1.142266264     0.000000000    -0.473224820     C.2   1  noname   -0.164591
    6   C6        -0.080513295     0.000000000    -1.155014240     C.2   1  noname    0.249895
    7   O7        -0.167634383     0.000000000    -2.525267374     O.3   1  noname   -0.340191
    8   F8        -0.010857271     0.000000000     2.978995081       F   1  noname   -0.163728
    9   H9        -2.225927453     0.000000000    -0.976609486       H   1  noname    0.113073
   10   H10       -2.182665579     0.000000000     1.539176349       H   1  noname    0.114172
   11   H11        2.113320477     0.000000000     1.469739887       H   1  noname    0.115617
   12   H12        2.080940551     0.000000000    -1.034547342       H   1  noname    0.100693
   13   H13        0.732714807     0.000000000    -2.893056978       H   1  noname    0.306596


@<TRIPOS>BOND
    1      1      2    2
    2      2      3    1
    3      3      4    2
    4      4      5    1
    5      5      6    2
    6      6      7    1
    7      3      8    1
    8      6      1    1
    9      1      9    1
   10      2     10    1
   11      4     11    1
   12      5     12    1
   13      7     13    1
#
#	File Created by: Spartan'20 Export
#

@<TRIPOS>MOLECULE
M0365
24 25
SMALL
MULLIKEN_CHARGES


@<TRIPOS>ATOM
    1   C1        -0.653119286     2.005482797    -1.072565195     C.2   1  noname   -0.140714
    2   C2         0.222871213     3.085525194    -1.172685703     C.2   1  noname   -0.153043
    3   C3         0.916022909     3.512032512    -0.037048180     C.2   1  noname    0.217362
    4   C4         0.739956583     2.881946671     1.198684663     C.2   1  noname   -0.162411
    5   C5        -0.140910514     1.805237315     1.293083191     C.2   1  noname   -0.139000
    6   C6        -0.816608995     1.364972766     0.153547871     C.2   1  noname    0.111154
    7   S7        -2.021660693    -0.001006276     0.250147586       S   1  noname    0.450812
    8   O8        -2.780458230     0.000342441    -1.043013564     O.2   1  noname   -0.448915
    9   C9        -0.812068565    -1.361733051     0.143489485     C.2   1  noname    0.106571
   10   C10       -0.683660085    -2.025195691    -1.074527703     C.2   1  noname   -0.142090
   11   C11        0.188888352    -3.108126186    -1.178976846     C.2   1  noname   -0.153500
   12   C12        0.913585791    -3.514222292    -0.055841531     C.2   1  noname    0.217421
   13   C13        0.774823192    -2.858828222     1.171562050     C.2   1  noname   -0.163397
   14   C14       -0.102165847    -1.779760544     1.270515945     C.2   1  noname   -0.132699
   15   Cl15       1.993118431    -4.874349491    -0.180992903      Cl   1  noname   -0.093885
   16   Cl16       2.004981403     4.864301287    -0.159963309      Cl   1  noname   -0.093521
   17   H17       -1.225971998     1.656611520    -1.934478573       H   1  noname    0.143503
   18   H18        0.366729736     3.599679419    -2.123086414       H   1  noname    0.126679
   19   H19        1.280734683     3.240768353     2.074233576       H   1  noname    0.125223
   20   H20       -0.298138879     1.317848675     2.257941120       H   1  noname    0.111028
   21   H21       -1.282171676    -1.694235271    -1.925839126       H   1  noname    0.145432
   22   H22        0.303821931    -3.642283616    -2.122264136       H   1  noname    0.126729
   23   H23        1.340781130    -3.201073813     2.037916497       H   1  noname    0.125098
   24   H24       -0.229380589    -1.273934495     2.230161198       H   1  noname    0.107283


@<TRIPOS>BOND
    1      1      2    2
    2      2      3    1
    3      3      4    2
    4      4      5    1
    5      5      6    2
    6      6      7    1
    7      7      8    2
    8      7      9    1
    9      9     10    2
   10     10     11    1
   11     11     12    2
   12     12     13    1
   13     13     14    2
   14     12     15    1
   15      3     16    1
   16      6      1    1
   17     14      9    1
   18      1     17    1
   19      2     18    1
   20      4     19    1
   21      5     20    1
   22     10     21    1
   23     11     22    1
   24     13     23    1
   25     14     24    1
#
#	File Created by: Spartan'20 Export
#

@<TRIPOS>MOLECULE
M0366
11 11
SMALL
MULLIKEN_CHARGES


@<TRIPOS>ATOM
    1   C1         0.956855024     0.000000000     0.939753857     C.2   1  noname   -0.042245
    2   C2         1.078077814     0.000000000    -0.449729373     C.2   1  noname   -0.180127
    3   C3        -0.094998921     0.000000000    -1.202338849     C.2   1  noname    0.182280
    4   C4        -1.334888479     0.000000000    -0.555278872     C.2   1  noname   -0.106061
    5   N5        -1.448070591     0.000000000     0.777615901     N.2   1  noname   -0.126003
    6   C6        -0.320494023     0.000000000     1.503302923     C.2   1  noname   -0.060961
    7   Br7       -0.023634899     0.000000000    -3.104815550      Br   1  noname   -0.066662
    8   H8         1.844055166     0.000000000     1.574947059       H   1  noname    0.118469
    9   H9         2.053747006     0.000000000    -0.936609543       H   1  noname    0.133339
   10   H10       -2.261318462     0.000000000    -1.136235786       H   1  noname    0.131518
   11   H11       -0.449329636     0.000000000     2.589388233       H   1  noname    0.119473


@<TRIPOS>BOND
    1      1      2    2
    2      2      3    1
    3      3      4    2
    4      4      5    1
    5      5      6    2
    6      3      7    1
    7      6      1    1
    8      1      8    1
    9      2      9    1
   10      4     10    1
   11      6     11    1
#
#	File Created by: Spartan'20 Export
#

@<TRIPOS>MOLECULE
M0367
12 12
SMALL
MULLIKEN_CHARGES


@<TRIPOS>ATOM
    1   C1         0.981954281     0.000000000    -1.200196070     C.2   1  noname   -0.043702
    2   C2         1.079461210     0.000000000     0.187080279     C.2   1  noname   -0.177216
    3   C3        -0.108335518     0.000000000     0.937495357     C.2   1  noname    0.283851
    4   C4        -1.337717377     0.000000000     0.247872628     C.2   1  noname   -0.103269
    5   N5        -1.430725674     0.000000000    -1.083762118     N.2   1  noname   -0.123201
    6   C6        -0.287313885     0.000000000    -1.785767454     C.2   1  noname   -0.045348
    7   C7        -0.082391314     0.000000000     2.364476123     C.1   1  noname   -0.288423
    8   N8        -0.068437534     0.000000000     3.530494564     N.1   1  noname    0.083854
    9   H9         1.876306801     0.000000000    -1.824627456       H   1  noname    0.126139
   10   H10        2.046792204     0.000000000     0.690737571       H   1  noname    0.141838
   11   H11       -2.275406562     0.000000000     0.810869233       H   1  noname    0.139864
   12   H12       -0.394186632     0.000000000    -2.874672658       H   1  noname    0.127030


@<TRIPOS>BOND
    1      1      2    2
    2      2      3    1
    3      3      4    2
    4      4      5    1
    5      5      6    2
    6      3      7    1
    7      7      8    3
    8      6      1    1
    9      1      9    1
   10      2     10    1
   11      4     11    1
   12      6     12    1
#
#	File Created by: Spartan'20 Export
#

@<TRIPOS>MOLECULE
M0368
11 11
SMALL
MULLIKEN_CHARGES


@<TRIPOS>ATOM
    1   C1         0.956955358     0.000000000    -0.924769097     C.2   1  noname   -0.045168
    2   C2         1.078367838     0.000000000     0.464051814     C.2   1  noname   -0.170768
    3   C3        -0.094382313     0.000000000     1.217950004     C.2   1  noname    0.200757
    4   C4        -1.333786282     0.000000000     0.568546809     C.2   1  noname   -0.094434
    5   N5        -1.448159663     0.000000000    -0.763788792     N.2   1  noname   -0.129415
    6   C6        -0.320178198     0.000000000    -1.489236568     C.2   1  noname   -0.062176
    7   Cl7       -0.028948799     0.000000000     2.957092829      Cl   1  noname   -0.089262
    8   H8         1.843625175     0.000000000    -1.560745154       H   1  noname    0.117814
    9   H9         2.052401688     0.000000000     0.953959835       H   1  noname    0.128467
   10   H10       -2.258191417     0.000000000     1.152620833       H   1  noname    0.127080
   11   H11       -0.447703387     0.000000000    -2.575682512       H   1  noname    0.118833


@<TRIPOS>BOND
    1      1      2    2
    2      2      3    1
    3      3      4    2
    4      4      5    1
    5      5      6    2
    6      3      7    1
    7      6      1    1
    8      1      8    1
    9      2      9    1
   10      4     10    1
   11      6     11    1
#
#	File Created by: Spartan'20 Export
#

@<TRIPOS>MOLECULE
M0369
11 11
SMALL
MULLIKEN_CHARGES


@<TRIPOS>ATOM
    1   C1         0.954090142     0.000000000     0.893776692     C.2   1  noname   -0.050481
    2   C2         1.085009973     0.000000000    -0.494970832     C.2   1  noname   -0.177114
    3   C3        -0.087553923     0.000000000    -1.239479700     C.2   1  noname    0.296736
    4   C4        -1.332242080     0.000000000    -0.610679955     C.2   1  noname   -0.107939
    5   N5        -1.452907437     0.000000000     0.722309857     N.2   1  noname   -0.133859
    6   C6        -0.327034407     0.000000000     1.451386583     C.2   1  noname   -0.064270
    7   F7        -0.025734660     0.000000000    -2.592041776       F   1  noname   -0.151633
    8   H8         1.836573961     0.000000000     1.535432846       H   1  noname    0.119209
    9   H9         2.055421588     0.000000000    -0.992598298       H   1  noname    0.130620
   10   H10       -2.247447091     0.000000000    -1.210234923       H   1  noname    0.127648
   11   H11       -0.458176066     0.000000000     2.537099507       H   1  noname    0.117359


@<TRIPOS>BOND
    1      1      2    2
    2      2      3    1
    3      3      4    2
    4      4      5    1
    5      5      6    2
    6      3      7    1
    7      6      1    1
    8      1      8    1
    9      2      9    1
   10      4     10    1
   11      6     11    1
#
#	File Created by: Spartan'20 Export
#

@<TRIPOS>MOLECULE
M0370
11 11
SMALL
MULLIKEN_CHARGES


@<TRIPOS>ATOM
    1   C1         0.958170472     0.000000000     0.958074380     C.2   1  noname    3.588302
    2   C2         1.078278101     0.000000000    -0.432286835     C.2   1  noname   -5.787168
    3   C3        -0.094585667     0.000000000    -1.187578904     C.2   1  noname    1.219384
    4   C4        -1.333852662     0.000000000    -0.536639625     C.2   1  noname   -3.602372
    5   N5        -1.446121582     0.000000000     0.796418728     N.2   1  noname    2.399853
    6   C6        -0.318582049     0.000000000     1.521816197     C.2   1  noname   -3.898742
    7   I7        -0.034432982     0.000000000    -3.296687840       I   1  noname   21.739263
    8   H8         1.845726556     0.000000000     1.592923858       H   1  noname   -3.636190
    9   H9         2.057729137     0.000000000    -0.912034057       H   1  noname   -4.073876
   10   H10       -2.264317587     0.000000000    -1.111870458       H   1  noname   -3.879257
   11   H11       -0.448011737     0.000000000     2.607864557       H   1  noname   -3.846453


@<TRIPOS>BOND
    1      1      2    2
    2      2      3    1
    3      3      4    2
    4      4      5    1
    5      5      6    2
    6      3      7    1
    7      6      1    1
    8      1      8    1
    9      2      9    1
   10      4     10    1
   11      6     11    1
#
#	File Created by: Spartan'20 Export
#

@<TRIPOS>MOLECULE
M0371
13 13
SMALL
MULLIKEN_CHARGES


@<TRIPOS>ATOM
    1   C1        -1.517902083     0.683133396    -0.182709957     C.2   1  noname   -0.056501
    2   C2        -0.174206465     1.012649923    -0.335065502     C.2   1  noname   -0.196731
    3   C3         0.801480095     0.059890968    -0.000816188     C.2   1  noname    0.256040
    4   C4         0.341755487    -1.187779313     0.472806357     C.2   1  noname   -0.131679
    5   N5        -0.944751073    -1.507284720     0.620462443     N.2   1  noname   -0.136886
    6   C6        -1.861911563    -0.583189876     0.297204103     C.2   1  noname   -0.086295
    7   N7         2.160812675     0.342604848    -0.068812921     N.3   1  noname   -0.406553
    8   H8        -2.296280194     1.404794979    -0.437751917       H   1  noname    0.104307
    9   H9         0.122337734     1.997404420    -0.705098854       H   1  noname    0.100101
   10   H10        1.071539135    -1.960556142     0.745752002       H   1  noname    0.093782
   11   H11       -2.909307789    -0.869800137     0.425485194       H   1  noname    0.106345
   12   H12        2.775712194    -0.464809544    -0.110792038       H   1  noname    0.228804
   13   H13        2.430721846     1.072941197    -0.720662723       H   1  noname    0.226798


@<TRIPOS>BOND
    1      1      2    2
    2      2      3    1
    3      3      4    2
    4      4      5    1
    5      5      6    2
    6      3      7    1
    7      6      1    1
    8      1      8    1
    9      2      9    1
   10      4     10    1
   11      6     11    1
   12      7     12    1
   13      7     13    1
#
#	File Created by: Spartan'20 Export
#

@<TRIPOS>MOLECULE
M0372
11 11
SMALL
MULLIKEN_CHARGES


@<TRIPOS>ATOM
    1   C1         0.000069543     0.000000000     1.208714961     C.2   1  noname   -0.056117
    2   C2        -1.208005628     0.000000000     0.510836906     C.2   1  noname   -0.182478
    3   C3        -1.120776806     0.000000000    -0.879907188     C.2   1  noname    0.250602
    4   N4         0.000100205     0.000000000    -1.578238797     N.2   1  noname   -0.089401
    5   C5         1.121182193     0.000000000    -0.880026607     C.2   1  noname    0.250790
    6   C6         1.208201681     0.000000000     0.510752799     C.2   1  noname   -0.182575
    7   F7         2.257302792     0.000000000    -1.603132327       F   1  noname   -0.124393
    8   F8        -2.257466519     0.000000000    -1.602486594       F   1  noname   -0.124517
    9   H9        -0.000510421     0.000000000     2.299645604       H   1  noname    0.130717
   10   H10       -2.177012420     0.000000000     1.006839051       H   1  noname    0.131221
   11   H11        2.176915380     0.000000000     1.007002191       H   1  noname    0.131196


@<TRIPOS>BOND
    1      1      2    2
    2      2      3    1
    3      3      4    2
    4      4      5    1
    5      5      6    2
    6      5      7    1
    7      3      8    1
    8      6      1    1
    9      1      9    1
   10      2     10    1
   11      6     11    1
#
#	File Created by: Spartan'20 Export
#

@<TRIPOS>MOLECULE
M0373
22 24
SMALL
MULLIKEN_CHARGES


@<TRIPOS>ATOM
    1   C1        -0.361207077     0.000000000    -3.392487493     C.2   1  noname   -0.063473
    2   C2         0.854442837     0.000000000    -2.735408706     C.2   1  noname   -0.153836
    3   C3         0.882185180     0.000000000    -1.324017193     C.2   1  noname    0.174952
    4   C4         2.101346505     0.000000000    -0.572550077     C.2   1  noname   -0.177799
    5   C5         2.089870081     0.000000000     0.792872545     C.2   1  noname   -0.142015
    6   C6         0.853820313     0.000000000     1.519423309     C.2   1  noname    0.099304
    7   C7        -0.380336013     0.000000000     0.806144546     C.2   1  noname    0.131666
    8   C8        -0.370532325     0.000000000    -0.641028964     C.2   1  noname    0.065896
    9   N9        -1.558352731     0.000000000    -1.294763960     N.2   1  noname   -0.148118
   10   C10       -1.541261391     0.000000000    -2.621994238     C.2   1  noname   -0.072639
   11   C11       -1.575750481     0.000000000     1.550742499     C.2   1  noname   -0.172239
   12   C12       -1.503602733     0.000000000     2.930518196     C.2   1  noname   -0.040459
   13   C13       -0.233226111     0.000000000     3.543850226     C.2   1  noname   -0.057751
   14   N14        0.914944001     0.000000000     2.878786742     N.2   1  noname   -0.133516
   15   H15       -0.419138564     0.000000000    -4.481934678       H   1  noname    0.114696
   16   H16        1.794446084     0.000000000    -3.292971395       H   1  noname    0.114890
   17   H17        3.047106616     0.000000000    -1.120093254       H   1  noname    0.109075
   18   H18        3.011641770     0.000000000     1.375996238       H   1  noname    0.112180
   19   H19       -2.518042939     0.000000000    -3.117666111       H   1  noname    0.107927
   20   H20       -2.526745061     0.000000000     1.016455663       H   1  noname    0.129463
   21   H21       -2.406105904     0.000000000     3.543765552       H   1  noname    0.111941
   22   H22       -0.155502057     0.000000000     4.636360553       H   1  noname    0.109024


@<TRIPOS>BOND
    1      1      2    2
    2      2      3    1
    3      3      4    2
    4      4      5    1
    5      5      6    2
    6      6      7    1
    7      7      8    2
    8      8      9    1
    9      9     10    2
   10      7     11    1
   11     11     12    2
   12     12     13    1
   13     13     14    2
   14     10      1    1
   15      8      3    1
   16     14      6    1
   17      1     15    1
   18      2     16    1
   19      4     17    1
   20      5     18    1
   21     10     19    1
   22     11     20    1
   23     12     21    1
   24     13     22    1
#
#	File Created by: Spartan'20 Export
#

@<TRIPOS>MOLECULE
M0374
26 29
SMALL
MULLIKEN_CHARGES


@<TRIPOS>ATOM
    1   C1        -0.000491671     0.000000000    -3.525316723     C.2   1  noname   -0.082980
    2   C2        -1.211018912     0.000000000    -2.833044307     C.2   1  noname   -0.177580
    3   C3        -1.236160792     0.000000000    -1.426995337     C.2   1  noname    0.151015
    4   C4        -2.461283841     0.000000000    -0.682796308     C.2   1  noname   -0.164504
    5   C5        -2.461739117     0.000000000     0.682965531     C.2   1  noname   -0.164539
    6   C6        -1.236966163     0.000000000     1.428576366     C.2   1  noname    0.150480
    7   C7        -1.211762626     0.000000000     2.834286835     C.2   1  noname   -0.177720
    8   C8        -0.000623264     0.000000000     3.525766094     C.2   1  noname   -0.082454
    9   C9         1.211282497     0.000000000     2.835221380     C.2   1  noname   -0.177792
   10   C10        1.238486985     0.000000000     1.429167022     C.2   1  noname    0.149293
   11   C11        0.001236872     0.000000000     0.713266032     C.2   1  noname    0.054002
   12   C12        0.001306494     0.000000000    -0.710827679     C.2   1  noname    0.053770
   13   C13        1.237751176     0.000000000    -1.428518797     C.2   1  noname    0.149986
   14   C14        1.210997320     0.000000000    -2.834712613     C.2   1  noname   -0.177594
   15   C15        2.462258092     0.000000000    -0.683601029     C.2   1  noname   -0.164149
   16   C16        2.462516348     0.000000000     0.682425042     C.2   1  noname   -0.164481
   17   H17       -0.001658186     0.000000000    -4.617066598       H   1  noname    0.109153
   18   H18       -2.156012235     0.000000000    -3.381825927       H   1  noname    0.108566
   19   H19       -3.403672278     0.000000000    -1.236213643       H   1  noname    0.104508
   20   H20       -3.405565054     0.000000000     1.233520560       H   1  noname    0.104498
   21   H21       -2.157364953     0.000000000     3.381729975       H   1  noname    0.108676
   22   H22       -0.001855290     0.000000000     4.617275489       H   1  noname    0.109178
   23   H23        2.155273915     0.000000000     3.384876406       H   1  noname    0.108681
   24   H24        2.154870777     0.000000000    -3.384955580       H   1  noname    0.108635
   25   H25        3.404472923     0.000000000    -1.236696391       H   1  noname    0.104555
   26   H26        3.405720981     0.000000000     1.233494200       H   1  noname    0.104520


@<TRIPOS>BOND
    1      1      2    2
    2      2      3    1
    3      3      4    2
    4      4      5    1
    5      5      6    2
    6      6      7    1
    7      7      8    2
    8      8      9    1
    9      9     10    2
   10     10     11    1
   11     11     12    2
   12     12     13    1
   13     13     14    2
   14     13     15    1
   15     15     16    2
   16     14      1    1
   17     12      3    1
   18     11      6    1
   19     16     10    1
   20      1     17    1
   21      2     18    1
   22      4     19    1
   23      5     20    1
   24      7     21    1
   25      8     22    1
   26      9     23    1
   27     14     24    1
   28     15     25    1
   29     16     26    1
#
#	File Created by: Spartan'20 Export
#

@<TRIPOS>MOLECULE
M0375
10 10
SMALL
MULLIKEN_CHARGES


@<TRIPOS>ATOM
    1   C1         0.712118584     0.000000000     0.964270666     C.2   1  noname   -0.140785
    2   C2        -0.711596046     0.000000000     0.964265589     C.2   1  noname   -0.140935
    3   C3        -1.126310750     0.000000000    -0.354931793     C.2   1  noname   -0.081379
    4   N4         0.000171068     0.000000000    -1.143145528   N.pl3   1  noname   -0.141882
    5   C5         1.126998296     0.000000000    -0.355004152     C.2   1  noname   -0.081609
    6   H6         1.363412619     0.000000000     1.833003776       H   1  noname    0.102463
    7   H7        -1.364320924     0.000000000     1.832121257       H   1  noname    0.102440
    8   H8        -2.119523990     0.000000000    -0.792366874       H   1  noname    0.123484
    9   H9        -0.000589526     0.000000000    -2.155115819       H   1  noname    0.214256
   10   H10        2.119640669     0.000000000    -0.793097122       H   1  noname    0.123519


@<TRIPOS>BOND
    1      1      2    1
    2      2      3    2
    3      3      4    1
    4      4      5    1
    5      5      1    2
    6      1      6    1
    7      2      7    1
    8      3      8    1
    9      4      9    1
   10      5     10    1
#
#	File Created by: Spartan'20 Export
#

@<TRIPOS>MOLECULE
M0376
18 18
SMALL
MULLIKEN_CHARGES


@<TRIPOS>ATOM
    1   C1        -0.053610997     0.000000000    -2.943478070     C.2   1  noname   -0.073496
    2   C2         1.116602225     0.000000000    -2.174187586     C.2   1  noname   -0.105503
    3   C3         1.044547330     0.000000000    -0.785939824     C.2   1  noname   -0.142831
    4   C4        -0.204579241     0.000000000    -0.128750064     C.2   1  noname    0.265037
    5   C5        -1.371127053     0.000000000    -0.920292912     C.2   1  noname   -0.143601
    6   C6        -1.298647250     0.000000000    -2.311180226     C.2   1  noname   -0.109666
    7   C7        -0.348855866     0.000000000     1.318401418     C.2   1  noname   -0.175980
    8   C8         0.626866457     0.000000000     2.257405442     C.2   1  noname   -0.059782
    9   C9         0.304602366     0.000000000     3.692863690     C.2   1  noname    0.078399
   10   O10       -0.826053232     0.000000000     4.161706346     O.2   1  noname   -0.246129
   11   H11        0.008306766     0.000000000    -4.033188557       H   1  noname    0.118917
   12   H12        2.091088521     0.000000000    -2.665858012       H   1  noname    0.117221
   13   H13        1.965926700     0.000000000    -0.201369617       H   1  noname    0.106268
   14   H14       -2.344976947     0.000000000    -0.425561562       H   1  noname    0.121401
   15   H15       -2.214811522     0.000000000    -2.904277420       H   1  noname    0.118426
   16   H16       -1.377488219     0.000000000     1.698828161       H   1  noname    0.116378
   17   H17        1.687539783     0.000000000     1.992233067       H   1  noname    0.099159
   18   H18        1.194670178     0.000000000     4.372645725       H   1  noname    0.055983


@<TRIPOS>BOND
    1      1      2    2
    2      2      3    1
    3      3      4    2
    4      4      5    1
    5      5      6    2
    6      4      7    1
    7      7      8    2
    8      8      9    1
    9      9     10    2
   10      6      1    1
   11      1     11    1
   12      2     12    1
   13      3     13    1
   14      5     14    1
   15      6     15    1
   16      7     16    1
   17      8     17    1
   18      9     18    1
#
#	File Created by: Spartan'20 Export
#

@<TRIPOS>MOLECULE
M0377
25 26
SMALL
MULLIKEN_CHARGES


@<TRIPOS>ATOM
    1   C1        -0.211839236    -0.011264169     4.617229404     C.2   1  noname   -0.075590
    2   C2         0.985395554    -0.488389830     4.078910667     C.2   1  noname   -0.117229
    3   C3         1.166042980    -0.507694911     2.696385045     C.2   1  noname   -0.137790
    4   C4         0.152713192    -0.053054292     1.835426578     C.2   1  noname    0.235802
    5   C5        -1.050332112     0.425106447     2.388277111     C.2   1  noname   -0.164607
    6   C6        -1.227383992     0.445760409     3.767085166     C.2   1  noname   -0.089522
    7   C7         0.371844331    -0.093510047     0.389112678     C.2   1  noname   -0.115321
    8   N8        -0.502354444     0.312317581    -0.461050883     N.2   1  noname   -0.107437
    9   C9        -0.261207255     0.174268032    -1.833727886     C.2   1  noname    0.174746
   10   C10        0.350064732    -0.964187973    -2.395587255     C.2   1  noname   -0.167578
   11   C11        0.536985335    -1.055672031    -3.774172476     C.2   1  noname   -0.113954
   12   C12        0.125715981    -0.018228378    -4.615079964     C.2   1  noname   -0.086675
   13   C13       -0.495504078     1.107976017    -4.065335130     C.2   1  noname   -0.092964
   14   C14       -0.703944094     1.198191550    -2.691338141     C.2   1  noname   -0.147636
   15   H15       -0.356605498     0.005245635     5.699056486       H   1  noname    0.115496
   16   H16        1.778498816    -0.846167312     4.737843125       H   1  noname    0.114024
   17   H17        2.100829531    -0.881050640     2.269850912       H   1  noname    0.111040
   18   H18       -1.830180866     0.775359080     1.710015918       H   1  noname    0.130559
   19   H19       -2.162989505     0.818384653     4.188632405       H   1  noname    0.115056
   20   H20        1.354960676    -0.487476455     0.063923688       H   1  noname    0.070266
   21   H21        0.641413141    -1.792996989    -1.747046185       H   1  noname    0.114002
   22   H22        0.997844659    -1.950918173    -4.197017758       H   1  noname    0.108433
   23   H23        0.272030863    -0.094602128    -5.693783745       H   1  noname    0.110241
   24   H24       -0.831077769     1.918074715    -4.715931688       H   1  noname    0.109980
   25   H25       -1.200920941     2.064529207    -2.251678072       H   1  noname    0.109490


@<TRIPOS>BOND
    1      1      2    2
    2      2      3    1
    3      3      4    2
    4      4      5    1
    5      5      6    2
    6      4      7    1
    7      7      8    2
    8      8      9    1
    9      9     10    2
   10     10     11    1
   11     11     12    2
   12     12     13    1
   13     13     14    2
   14      6      1    1
   15     14      9    1
   16      1     15    1
   17      2     16    1
   18      3     17    1
   19      5     18    1
   20      6     19    1
   21      7     20    1
   22     10     21    1
   23     11     22    1
   24     12     23    1
   25     13     24    1
   26     14     25    1
#
#	File Created by: Spartan'20 Export
#

@<TRIPOS>MOLECULE
M0378
13 13
SMALL
MULLIKEN_CHARGES


@<TRIPOS>ATOM
    1   C1        -0.000003396     0.000000000    -1.729780490     C.2   1  noname   -0.068385
    2   C2        -1.211075516     0.000000000    -1.031676634     C.2   1  noname   -0.102250
    3   C3        -1.218559325     0.000000000     0.361141607     C.2   1  noname   -0.153389
    4   C4         0.000644487     0.000000000     1.064168403     C.2   1  noname    0.260268
    5   C5         1.219685053     0.000000000     0.360697903     C.2   1  noname   -0.153585
    6   C6         1.211457900     0.000000000    -1.032224826     C.2   1  noname   -0.102149
    7   C7        -0.000246431     0.000000000     2.493863163     C.1   1  noname   -0.284998
    8   N8        -0.002360455     0.000000000     3.660278901     N.1   1  noname    0.073293
    9   H9        -0.000597632     0.000000000    -2.821423835       H   1  noname    0.123935
   10   H10       -2.156956499     0.000000000    -1.576139036       H   1  noname    0.124225
   11   H11       -2.158216954     0.000000000     0.914632024       H   1  noname    0.137504
   12   H12        2.159407958     0.000000000     0.913901352       H   1  noname    0.137503
   13   H13        2.156820809     0.000000000    -1.577438533       H   1  noname    0.124237


@<TRIPOS>BOND
    1      1      2    2
    2      2      3    1
    3      3      4    2
    4      4      5    1
    5      5      6    2
    6      4      7    1
    7      7      8    3
    8      6      1    1
    9      1      9    1
   10      2     10    1
   11      3     11    1
   12      5     12    1
   13      6     13    1
#
#	File Created by: Spartan'20 Export
#

@<TRIPOS>MOLECULE
M0379
16 16
SMALL
MULLIKEN_CHARGES


@<TRIPOS>ATOM
    1   C1        -2.308367725     0.077817436    -0.464587377     C.2   1  noname   -0.075970
    2   C2        -1.444044828     1.164554278    -0.617057698     C.2   1  noname   -0.116761
    3   C3        -0.097317435     1.040607293    -0.271855026     C.2   1  noname   -0.149797
    4   C4         0.395886384    -0.170810772     0.235387541     C.2   1  noname    0.090276
    5   C5        -0.482786863    -1.250362575     0.402292284     C.2   1  noname   -0.135882
    6   C6        -1.824710930    -1.129675860     0.047296252     C.2   1  noname   -0.089902
    7   C7         1.828568164    -0.374713935     0.644571831     C.2   1  noname    0.215558
    8   O8         2.165210150    -1.263845675     1.423427079     O.2   1  noname   -0.297451
    9   N9         2.739493439     0.507785773     0.115884739    N.am   1  noname   -0.365780
   10   H10       -3.360916351     0.174577695    -0.737455073       H   1  noname    0.116066
   11   H11       -1.821921743     2.115038229    -0.998171145       H   1  noname    0.114110
   12   H12        0.557566441     1.909636025    -0.362278182       H   1  noname    0.106817
   13   H13       -0.085513566    -2.177061917     0.818993462       H   1  noname    0.142386
   14   H14       -2.498689566    -1.979113909     0.172745037       H   1  noname    0.116790
   15   H15        3.716512270     0.309471130     0.304738080       H   1  noname    0.231813
   16   H16        2.521032159     1.046096783    -0.713931805       H   1  noname    0.231076


@<TRIPOS>BOND
    1      1      2    2
    2      2      3    1
    3      3      4    2
    4      4      5    1
    5      5      6    2
    6      4      7    1
    7      7      8    2
    8      7      9    am
    9      6      1    1
   10      1     10    1
   11      2     11    1
   12      3     12    1
   13      5     13    1
   14      6     14    1
   15      9     15    1
   16      9     16    1
#
#	File Created by: Spartan'20 Export
#

@<TRIPOS>MOLECULE
M0380
24 25
SMALL
MULLIKEN_CHARGES


@<TRIPOS>ATOM
    1   C1         3.802600794     0.112908687     0.704224962     C.2   1  noname   -0.072431
    2   C2         3.669826773    -0.498799468    -0.547291446     C.2   1  noname   -0.102145
    3   C3         2.429289457    -0.531696497    -1.177247890     C.2   1  noname   -0.132598
    4   C4         1.298067118     0.019665557    -0.553659523     C.2   1  noname    0.123462
    5   C5         1.439710956     0.633179168     0.701702880     C.2   1  noname   -0.183112
    6   C6         2.688900922     0.686612909     1.321697673     C.2   1  noname   -0.113316
    7   C7         0.000404500    -0.002295998    -1.303739881     C.2   1  noname    0.158146
    8   O8        -0.000021984    -0.004650150    -2.533674203     O.2   1  noname   -0.260038
    9   C9        -1.297297587    -0.021270983    -0.553694531     C.2   1  noname    0.124535
   10   C10       -1.440588976    -0.635502998     0.701181810     C.2   1  noname   -0.183729
   11   C11       -2.689816583    -0.686555128     1.321482180     C.2   1  noname   -0.113168
   12   C12       -3.802279754    -0.109739947     0.704941185     C.2   1  noname   -0.072484
   13   C13       -3.668341072     0.502113329    -0.546341282     C.2   1  noname   -0.102279
   14   C14       -2.427854750     0.532548082    -1.176776035     C.2   1  noname   -0.132728
   15   H15        4.776943720     0.147104396     1.195285403       H   1  noname    0.116683
   16   H16        4.539420339    -0.944935409    -1.033270221       H   1  noname    0.116842
   17   H17        2.307511610    -0.981598910    -2.164052229       H   1  noname    0.134854
   18   H18        0.573502823     1.092537694     1.180884152       H   1  noname    0.149354
   19   H19        2.793591396     1.181259132     2.289040353       H   1  noname    0.115611
   20   H20       -0.576457941    -1.098598827     1.180151029       H   1  noname    0.149276
   21   H21       -2.795936256    -1.182099941     2.288273674       H   1  noname    0.115577
   22   H22       -4.776656407    -0.142186635     1.196287436       H   1  noname    0.116648
   23   H23       -4.537571896     0.949821609    -1.031669239       H   1  noname    0.116796
   24   H24       -2.306947200     0.982180329    -2.163736257       H   1  noname    0.134740


@<TRIPOS>BOND
    1      1      2    2
    2      2      3    1
    3      3      4    2
    4      4      5    1
    5      5      6    2
    6      4      7    1
    7      7      8    2
    8      7      9    1
    9      9     10    2
   10     10     11    1
   11     11     12    2
   12     12     13    1
   13     13     14    2
   14      6      1    1
   15     14      9    1
   16      1     15    1
   17      2     16    1
   18      3     17    1
   19      5     18    1
   20      6     19    1
   21     10     20    1
   22     11     21    1
   23     12     22    1
   24     13     23    1
   25     14     24    1
#
#	File Created by: Spartan'20 Export
#

@<TRIPOS>MOLECULE
M0381
23 24
SMALL
MULLIKEN_CHARGES


@<TRIPOS>ATOM
    1   C1        -3.669698061     0.436788673     0.610929527     C.2   1  noname   -0.071174
    2   C2        -3.526690362    -0.720691119    -0.162235812     C.2   1  noname   -0.100279
    3   C3        -2.282849541    -1.059285276    -0.686804052     C.2   1  noname   -0.134064
    4   C4        -1.157958005    -0.260283838    -0.423392401     C.2   1  noname    0.120361
    5   C5        -1.310071323     0.901062861     0.351672153     C.2   1  noname   -0.176950
    6   C6        -2.562676716     1.251693570     0.856850231     C.2   1  noname   -0.112580
    7   C7         0.144862185    -0.648862550    -1.046213888     C.2   1  noname    0.158362
    8   O8         0.173005767    -1.278228632    -2.102271975     O.2   1  noname   -0.256119
    9   C9         1.428982523    -0.276077529    -0.370594694     C.2   1  noname    0.137007
   10   C10        2.580184689    -0.098821001    -1.150411308     C.2   1  noname   -0.158282
   11   C11        3.783197950     0.190502788    -0.518188554     C.2   1  noname   -0.051746
   12   C12        3.800549749     0.271954254     0.879059099     C.2   1  noname   -0.044752
   13   N13        2.721535501     0.073209729     1.649319869     N.2   1  noname   -0.126335
   14   C14        1.565300560    -0.189268415     1.025200004     C.2   1  noname   -0.137891
   15   H15       -4.646853516     0.705527242     1.016592628       H   1  noname    0.119076
   16   H16       -4.391160079    -1.357791762    -0.357995562       H   1  noname    0.118708
   17   H17       -2.155656370    -1.946943417    -1.308596877       H   1  noname    0.136273
   18   H18       -0.451977388     1.548458371     0.538065910       H   1  noname    0.149475
   19   H19       -2.674034553     2.164311714     1.444888713       H   1  noname    0.118599
   20   H20        2.502692139    -0.195150981    -2.234937099       H   1  noname    0.135308
   21   H21        4.698234716     0.350923115    -1.090478138       H   1  noname    0.117715
   22   H22        4.730150393     0.504869547     1.407702604       H   1  noname    0.118699
   23   H23        0.700929740    -0.367897343     1.671839623       H   1  noname    0.149971


@<TRIPOS>BOND
    1      1      2    2
    2      2      3    1
    3      3      4    2
    4      4      5    1
    5      5      6    2
    6      4      7    1
    7      7      8    2
    8      7      9    1
    9      9     10    2
   10     10     11    1
   11     11     12    2
   12     12     13    1
   13     13     14    2
   14      6      1    1
   15     14      9    1
   16      1     15    1
   17      2     16    1
   18      3     17    1
   19      5     18    1
   20      6     19    1
   21     10     20    1
   22     11     21    1
   23     12     22    1
   24     14     23    1
#
#	File Created by: Spartan'20 Export
#

@<TRIPOS>MOLECULE
M0382
31 33
SMALL
MULLIKEN_CHARGES


@<TRIPOS>ATOM
    1   C1         0.028864980    -0.000616985     4.103664594     C.2   1  noname   -0.081243
    2   C2        -1.190275940    -0.000190832     3.427459334     C.2   1  noname   -0.128322
    3   C3        -1.224170220     0.000509451     2.029666358     C.2   1  noname   -0.150536
    4   C4        -0.044913207     0.000795675     1.272371562     C.2   1  noname    0.195541
    5   C5         1.174738909     0.000469124     1.972653311     C.2   1  noname   -0.199802
    6   C6         1.215554612    -0.000246918     3.366027439     C.2   1  noname   -0.132328
    7   C7        -0.046128651     0.000474727    -0.253816121     C.3   1  noname    0.184911
    8   C8        -1.461007132     0.000376504    -0.869680008     C.3   1  noname   -0.242694
    9   C9        -1.345566208    -0.000339549    -2.425627930     C.3   1  noname   -0.147881
   10   N10        0.049424125    -0.000220247    -2.881601979     N.3   1  noname   -0.038702
   11   C11        0.719096399    -1.197441693    -2.355478504     C.3   1  noname   -0.147880
   12   C12        0.689736349    -1.252258799    -0.797619776     C.3   1  noname   -0.204328
   13   C13        0.718703750     1.197501424    -2.356100947     C.3   1  noname   -0.147936
   14   C14        0.690140422     1.252632164    -0.798246901     C.3   1  noname   -0.204188
   15   H15        0.056467642    -0.001347971     5.194768414       H   1  noname    0.107142
   16   H16       -2.127506475    -0.000584166     3.987927145       H   1  noname    0.106381
   17   H17       -2.193090415     0.000597852     1.530486794       H   1  noname    0.116298
   18   H18        2.114809231     0.000492505     1.417247435       H   1  noname    0.100417
   19   H19        2.179721255    -0.000693226     3.878492935       H   1  noname    0.105976
   20   H20       -2.016283462     0.886371504    -0.523775707       H   1  noname    0.095375
   21   H21       -2.016372998    -0.885307079    -0.523095323       H   1  noname    0.095368
   22   H22       -1.841393261     0.884768159    -2.853409265       H   1  noname    0.093386
   23   H23       -1.840914422    -0.886152692    -2.852529148       H   1  noname    0.093373
   24   H24        1.755305994    -1.196359860    -2.727167111       H   1  noname    0.092038
   25   H25        0.220002714    -2.078527338    -2.787526615       H   1  noname    0.091421
   26   H26        0.169732846    -2.154448851    -0.439558000       H   1  noname    0.087994
   27   H27        1.710110663    -1.289450872    -0.388958289       H   1  noname    0.086811
   28   H28        1.754709085     1.196851664    -2.728334858       H   1  noname    0.092033
   29   H29        0.218858350     2.078169256    -2.788107362       H   1  noname    0.091434
   30   H30        0.170902057     2.155158885    -0.440018354       H   1  noname    0.087982
   31   H31        1.710743008     1.289018184    -0.390113121       H   1  noname    0.086771


@<TRIPOS>BOND
    1      1      2    2
    2      2      3    1
    3      3      4    2
    4      4      5    1
    5      5      6    2
    6      4      7    1
    7      7      8    1
    8      8      9    1
    9      9     10    1
   10     10     11    1
   11     11     12    1
   12     10     13    1
   13     13     14    1
   14      6      1    1
   15     12      7    1
   16     14      7    1
   17      1     15    1
   18      2     16    1
   19      3     17    1
   20      5     18    1
   21      6     19    1
   22      8     20    1
   23      8     21    1
   24      9     22    1
   25      9     23    1
   26     11     24    1
   27     11     25    1
   28     12     26    1
   29     12     27    1
   30     13     28    1
   31     13     29    1
   32     14     30    1
   33     14     31    1
#
#	File Created by: Spartan'20 Export
#

@<TRIPOS>MOLECULE
M0383
22 23
SMALL
MULLIKEN_CHARGES


@<TRIPOS>ATOM
    1   C1         3.509619532    -0.260297804     0.422196287     C.2   1  noname   -0.079227
    2   C2         2.825972035    -1.376959968    -0.073520657     C.2   1  noname   -0.085981
    3   C3         1.447514862    -1.332452611    -0.254417208     C.2   1  noname   -0.174587
    4   C4         0.723060656    -0.166009311     0.054504264     C.2   1  noname    0.142126
    5   C5         1.418856808     0.949772909     0.547939513     C.2   1  noname   -0.151781
    6   C6         2.802162245     0.901988762     0.732616926     C.2   1  noname   -0.117550
    7   C7        -0.739383400    -0.132103281    -0.128165935     C.2   1  noname    0.003127
    8   N8        -1.403676720    -1.175532102    -0.489469904     N.2   1  noname   -0.105693
    9   C9        -2.829858207    -0.853667067    -0.529315892     C.3   1  noname   -0.094593
   10   C10       -2.946771021     0.687267643    -0.450758643     C.3   1  noname   -0.183823
   11   C11       -1.588720787     1.103181884     0.140100755     C.3   1  noname   -0.190726
   12   H12        4.591078564    -0.299109919     0.565129203       H   1  noname    0.111860
   13   H13        3.375482699    -2.288006066    -0.318727160       H   1  noname    0.111858
   14   H14        0.897100079    -2.194357674    -0.634410178       H   1  noname    0.129552
   15   H15        0.873254508     1.861479654     0.797522423       H   1  noname    0.113052
   16   H16        3.327977444     1.776025830     1.121234968       H   1  noname    0.109922
   17   H17       -3.316849321    -1.353701713     0.328169697       H   1  noname    0.092879
   18   H18       -3.286284189    -1.281455949    -1.435244206       H   1  noname    0.108927
   19   H19       -3.065675617     1.108346979    -1.460191979       H   1  noname    0.093513
   20   H20       -3.801903110     1.025545297     0.149430159       H   1  noname    0.106243
   21   H21       -1.172174908     2.014830379    -0.312746474       H   1  noname    0.112225
   22   H22       -1.640782153     1.285214128     1.228124042       H   1  noname    0.101536


@<TRIPOS>BOND
    1      1      2    2
    2      2      3    1
    3      3      4    2
    4      4      5    1
    5      5      6    2
    6      4      7    1
    7      7      8    2
    8      8      9    1
    9      9     10    1
   10     10     11    1
   11      6      1    1
   12     11      7    1
   13      1     12    1
   14      2     13    1
   15      3     14    1
   16      5     15    1
   17      6     16    1
   18      9     17    1
   19      9     18    1
   20     10     19    1
   21     10     20    1
   22     11     21    1
   23     11     22    1
#
#	File Created by: Spartan'20 Export
#

@<TRIPOS>MOLECULE
M0384
14 14
SMALL
MULLIKEN_CHARGES


@<TRIPOS>ATOM
    1   C1        -0.348455212     0.000000000    -1.885171173     C.2   1  noname   -0.069749
    2   C2        -1.418147265     0.000000000    -0.979896291     C.2   1  noname   -0.086198
    3   C3        -1.170415116     0.000000000     0.388643587     C.2   1  noname   -0.137155
    4   C4         0.151971782     0.000000000     0.860955976     C.2   1  noname    0.145843
    5   C5         1.219122696     0.000000000    -0.049068173     C.2   1  noname   -0.125267
    6   C6         0.969606549     0.000000000    -1.421464571     C.2   1  noname   -0.111567
    7   C7         0.428355703     0.000000000     2.314947549     C.2   1  noname    0.049932
    8   O8        -0.422607741     0.000000000     3.187732564     O.2   1  noname   -0.229012
    9   H9        -0.545916705     0.000000000    -2.959002325       H   1  noname    0.120747
   10   H10       -2.444633532     0.000000000    -1.351026430       H   1  noname    0.120985
   11   H11       -1.982624706     0.000000000     1.118034122       H   1  noname    0.140843
   12   H12        2.245551290     0.000000000     0.328404668       H   1  noname    0.118853
   13   H13        1.798934109     0.000000000    -2.130843850       H   1  noname    0.119594
   14   H14        1.519258148     0.000000000     2.577754347       H   1  noname    0.056891


@<TRIPOS>BOND
    1      1      2    2
    2      2      3    1
    3      3      4    2
    4      4      5    1
    5      5      6    2
    6      4      7    1
    7      7      8    2
    8      6      1    1
    9      1      9    1
   10      2     10    1
   11      3     11    1
   12      5     12    1
   13      6     13    1
   14      7     14    1
#
#	File Created by: Spartan'20 Export
#

@<TRIPOS>MOLECULE
M0385
20 20
SMALL
MULLIKEN_CHARGES


@<TRIPOS>ATOM
    1   C1         2.768757307     0.076630908     0.820330480     C.2   1  noname   -0.083570
    2   C2         2.008852537     1.219881635     0.560919577     C.2   1  noname   -0.111937
    3   C3         0.779037216     1.112707793    -0.090104057     C.2   1  noname   -0.132545
    4   C4         0.283653624    -0.135436243    -0.493736294     C.2   1  noname    0.218881
    5   C5         1.058640621    -1.274239375    -0.229862479     C.2   1  noname   -0.163696
    6   C6         2.289134498    -1.173024414     0.421748428     C.2   1  noname   -0.116602
    7   C7        -1.069082658    -0.267599920    -1.146554571     C.3   1  noname   -0.199371
    8   C8        -2.225977281    -0.374737727    -0.133938995     C.3   1  noname   -0.126541
    9   N9        -2.410487671     0.886874179     0.588345149     N.3   1  noname   -0.474135
   10   H10        3.731601289     0.158445659     1.328169830       H   1  noname    0.104214
   11   H11        2.375500594     2.201431520     0.868058804       H   1  noname    0.103553
   12   H12        0.182893281     2.007178735    -0.278404714       H   1  noname    0.080662
   13   H13        0.691013105    -2.256139100    -0.541627785       H   1  noname    0.097360
   14   H14        2.877282367    -2.072823159     0.614380527       H   1  noname    0.103855
   15   H15       -1.088321239    -1.165221240    -1.785385191       H   1  noname    0.100638
   16   H16       -1.259904015     0.594924641    -1.807677766       H   1  noname    0.101159
   17   H17       -3.132099433    -0.718448686    -0.673873653       H   1  noname    0.092244
   18   H18       -1.977196640    -1.156280186     0.601566012       H   1  noname    0.103119
   19   H19       -2.859902239     1.577756665    -0.016628347       H   1  noname    0.205691
   20   H20       -3.023395263     0.758118315     1.394275046       H   1  noname    0.211370


@<TRIPOS>BOND
    1      1      2    2
    2      2      3    1
    3      3      4    2
    4      4      5    1
    5      5      6    2
    6      4      7    1
    7      7      8    1
    8      8      9    1
    9      6      1    1
   10      1     10    1
   11      2     11    1
   12      3     12    1
   13      5     13    1
   14      6     14    1
   15      7     15    1
   16      7     16    1
   17      8     17    1
   18      8     18    1
   19      9     19    1
   20      9     20    1
#
#	File Created by: Spartan'20 Export
#

@<TRIPOS>MOLECULE
M0386
19 19
SMALL
MULLIKEN_CHARGES


@<TRIPOS>ATOM
    1   C1         2.703512135     0.526125023     0.044073097     C.2   1  noname   -0.083801
    2   C2         2.103427178    -0.435077665     0.861438849     C.2   1  noname   -0.105844
    3   C3         0.782237859    -0.824349514     0.637145507     C.2   1  noname   -0.156170
    4   C4         0.035298737    -0.259128509    -0.407461200     C.2   1  noname    0.174892
    5   C5         0.648442429     0.705227162    -1.219305400     C.2   1  noname   -0.164631
    6   C6         1.970950707     1.096866367    -0.998611516     C.2   1  noname   -0.115208
    7   C7        -1.402090183    -0.658766448    -0.634867030     C.3   1  noname   -0.162915
    8   C8        -2.387390706     0.037462220     0.303623318     C.3   1  noname   -0.083261
    9   O9        -2.181316825    -0.464543038     1.627570504     O.3   1  noname   -0.404607
   10   H10        3.738896904     0.825934800     0.216387781       H   1  noname    0.105971
   11   H11        2.669881810    -0.887120682     1.678250381       H   1  noname    0.105973
   12   H12        0.312326470    -1.569522016     1.281161445       H   1  noname    0.112127
   13   H13        0.082623397     1.148726687    -2.043637807       H   1  noname    0.098711
   14   H14        2.431140986     1.844837174    -1.647488722       H   1  noname    0.105594
   15   H15       -1.696930235    -0.424046059    -1.670106853       H   1  noname    0.104055
   16   H16       -1.525437284    -1.746278191    -0.504376982       H   1  noname    0.103013
   17   H17       -3.420617005    -0.171975694    -0.035419942       H   1  noname    0.089577
   18   H18       -2.227951094     1.131336575     0.261181470       H   1  noname    0.098194
   19   H19       -2.637005282     0.124291808     2.250443098       H   1  noname    0.294621


@<TRIPOS>BOND
    1      1      2    2
    2      2      3    1
    3      3      4    2
    4      4      5    1
    5      5      6    2
    6      4      7    1
    7      7      8    1
    8      8      9    1
    9      6      1    1
   10      1     10    1
   11      2     11    1
   12      3     12    1
   13      5     13    1
   14      6     14    1
   15      7     15    1
   16      7     16    1
   17      8     17    1
   18      8     18    1
   19      9     19    1
#
#	File Created by: Spartan'20 Export
#

@<TRIPOS>MOLECULE
M0387
17 17
SMALL
MULLIKEN_CHARGES


@<TRIPOS>ATOM
    1   C1         2.417639876     0.570983094    -0.111044973     C.2   1  noname   -0.086009
    2   C2         1.435937441     1.242133551    -0.845341865     C.2   1  noname   -0.097599
    3   C3         0.107433948     0.818404240    -0.797273016     C.2   1  noname   -0.131512
    4   C4        -0.261758671    -0.283401825    -0.012747049     C.2   1  noname    0.088220
    5   C5         0.727539060    -0.944257080     0.725660266     C.2   1  noname   -0.156816
    6   C6         2.058968854    -0.524724420     0.676656204     C.2   1  noname   -0.111744
    7   C7        -1.696246958    -0.769497530     0.013674495     C.3   1  noname   -0.091541
    8   N8        -2.649484427     0.345784586    -0.028018445     N.3   1  noname   -0.480323
    9   H9         3.456595793     0.903886245    -0.148828829       H   1  noname    0.107071
   10   H10        1.707832569     2.101998167    -1.461278697       H   1  noname    0.107328
   11   H11       -0.668249472     1.342780706    -1.358412363       H   1  noname    0.127917
   12   H12        0.449116276    -1.799126528     1.348400373       H   1  noname    0.099849
   13   H13        2.816121981    -1.051029773     1.261411638       H   1  noname    0.106669
   14   H14       -1.879928645    -1.387253025    -0.883091447       H   1  noname    0.104613
   15   H15       -1.820871663    -1.444897931     0.884459158       H   1  noname    0.097630
   16   H16       -2.595613637     0.884723197     0.839220017       H   1  noname    0.210146
   17   H17       -3.605032324    -0.006505672    -0.103445468       H   1  noname    0.209725


@<TRIPOS>BOND
    1      1      2    2
    2      2      3    1
    3      3      4    2
    4      4      5    1
    5      5      6    2
    6      4      7    1
    7      7      8    1
    8      6      1    1
    9      1      9    1
   10      2     10    1
   11      3     11    1
   12      5     12    1
   13      6     13    1
   14      7     14    1
   15      7     15    1
   16      8     16    1
   17      8     17    1
#
#	File Created by: Spartan'20 Export
#

@<TRIPOS>MOLECULE
M0388
30 31
SMALL
MULLIKEN_CHARGES


@<TRIPOS>ATOM
    1   C1         4.109903673    -0.754410422     0.060298683     C.2   1  noname   -0.086296
    2   C2         4.006179193     0.098970548    -1.042207043     C.2   1  noname   -0.112059
    3   C3         2.849816341     0.855143032    -1.234117110     C.2   1  noname   -0.172579
    4   C4         1.776713147     0.775907756    -0.334492514     C.2   1  noname    0.124767
    5   C5         1.896978499    -0.078064957     0.769863565     C.2   1  noname   -0.157909
    6   C6         3.052441394    -0.839024581     0.967380968     C.2   1  noname   -0.109156
    7   C7         0.494128211     1.540562553    -0.598866554     C.3   1  noname   -0.158710
    8   N8        -0.382420995     0.949366802    -1.624202950     N.3   1  noname   -0.262998
    9   C9        -0.863268055    -0.397484099    -1.302240547     C.3   1  noname   -0.110703
   10   C10       -1.888309649    -0.378402934    -0.186592321     C.2   1  noname    0.105132
   11   C11       -2.911981725     0.578531458    -0.179758972     C.2   1  noname   -0.141870
   12   C12       -3.874507067     0.581804254     0.829339297     C.2   1  noname   -0.101870
   13   C13       -3.826007902    -0.371469462     1.851029922     C.2   1  noname   -0.083002
   14   C14       -2.805672402    -1.323639302     1.857883173     C.2   1  noname   -0.115138
   15   C15       -1.841686037    -1.322055520     0.845741075     C.2   1  noname   -0.175507
   16   H16        5.013622487    -1.347505786     0.212012890       H   1  noname    0.109384
   17   H17        4.832865235     0.179504031    -1.751198970       H   1  noname    0.109001
   18   H18        2.778266688     1.522164160    -2.098785854       H   1  noname    0.105113
   19   H19        1.069150099    -0.146904713     1.481194827       H   1  noname    0.126304
   20   H20        3.125784863    -1.499834652     1.833685204       H   1  noname    0.109587
   21   H21       -0.090029358     1.617570924     0.331577558       H   1  noname    0.123490
   22   H22        0.726435897     2.567357645    -0.922526034       H   1  noname    0.122917
   23   H23        0.107487863     0.927810118    -2.520890254       H   1  noname    0.179371
   24   H24       -0.051694206    -1.101401025    -1.025402902       H   1  noname    0.115573
   25   H25       -1.331829096    -0.797395409    -2.217329193       H   1  noname    0.108520
   26   H26       -2.932109432     1.329222427    -0.972649713       H   1  noname    0.117979
   27   H27       -4.669411679     1.330757743     0.819724297       H   1  noname    0.107809
   28   H28       -4.579473652    -0.368697104     2.641185392       H   1  noname    0.107798
   29   H29       -2.755234551    -2.066439956     2.656756381       H   1  noname    0.107621
   30   H30       -1.036137783    -2.061943530     0.853587701       H   1  noname    0.111883


@<TRIPOS>BOND
    1      1      2    2
    2      2      3    1
    3      3      4    2
    4      4      5    1
    5      5      6    2
    6      4      7    1
    7      7      8    1
    8      8      9    1
    9      9     10    1
   10     10     11    2
   11     11     12    1
   12     12     13    2
   13     13     14    1
   14     14     15    2
   15      6      1    1
   16     15     10    1
   17      1     16    1
   18      2     17    1
   19      3     18    1
   20      5     19    1
   21      6     20    1
   22      7     21    1
   23      7     22    1
   24      8     23    1
   25      9     24    1
   26      9     25    1
   27     11     26    1
   28     12     27    1
   29     13     28    1
   30     14     29    1
   31     15     30    1
#
#	File Created by: Spartan'20 Export
#

@<TRIPOS>MOLECULE
M0389
16 16
SMALL
MULLIKEN_CHARGES


@<TRIPOS>ATOM
    1   C1        -0.250582314     0.000199850    -2.208688477     C.2   1  noname   -0.082863
    2   C2        -0.124180824    -1.208300054    -1.518831195     C.2   1  noname   -0.103485
    3   C3         0.136848774    -1.205105934    -0.147092711     C.2   1  noname   -0.129286
    4   C4         0.274366048     0.002288817     0.553359548     C.2   1  noname   -0.000127
    5   C5         0.141621893     1.208876294    -0.149529827     C.2   1  noname   -0.129424
    6   C6        -0.119212844     1.209800881    -1.521493796     C.2   1  noname   -0.103494
    7   C7         0.480150243     0.001679559     2.044462984     C.3   1  noname    0.008798
    8   O8        -0.770291075    -0.006979161     2.763416615     O.3   1  noname   -0.411136
    9   H9        -0.447825170    -0.000971333    -3.282503920       H   1  noname    0.113446
   10   H10       -0.223516155    -2.155581631    -2.052581090       H   1  noname    0.114388
   11   H11        0.238636453    -2.150799458     0.391579913       H   1  noname    0.115785
   12   H12        0.247035512     2.155207024     0.387092986       H   1  noname    0.115577
   13   H13       -0.214724470     2.155951406    -2.057785842       H   1  noname    0.114387
   14   H14        1.049204153     0.897174713     2.352367205       H   1  noname    0.093473
   15   H15        1.059496031    -0.888385751     2.349365389       H   1  noname    0.093275
   16   H16       -1.477026255    -0.015055222     2.096862221       H   1  noname    0.295777


@<TRIPOS>BOND
    1      1      2    2
    2      2      3    1
    3      3      4    2
    4      4      5    1
    5      5      6    2
    6      4      7    1
    7      7      8    1
    8      6      1    1
    9      1      9    1
   10      2     10    1
   11      3     11    1
   12      5     12    1
   13      6     13    1
   14      7     14    1
   15      7     15    1
   16      8     16    1
#
#	File Created by: Spartan'20 Export
#

@<TRIPOS>MOLECULE
M0390
29 30
SMALL
MULLIKEN_CHARGES


@<TRIPOS>ATOM
    1   C1         3.866875686     0.335190568     1.147421118     C.2   1  noname   -0.083095
    2   C2         3.834832286     0.655126346    -0.213596761     C.2   1  noname   -0.095691
    3   C3         2.781849471     0.211769216    -1.013083636     C.2   1  noname   -0.155006
    4   C4         1.742577699    -0.552950287    -0.463503079     C.2   1  noname    0.077917
    5   C5         1.777845575    -0.858328360     0.901463304     C.2   1  noname   -0.146430
    6   C6         2.835935929    -0.423886692     1.704198364     C.2   1  noname   -0.116660
    7   C7         0.600047782    -1.035261500    -1.331572534     C.3   1  noname   -0.035235
    8   O8         0.000262720    -0.004380513    -2.124934601     O.3   1  noname   -0.244513
    9   C9        -0.604971010     1.034099131    -1.345120083     C.3   1  noname   -0.034985
   10   C10       -1.745525212     0.555644846    -0.473441303     C.2   1  noname    0.076603
   11   C11       -2.790502282    -0.203100074    -1.020397260     C.2   1  noname   -0.154515
   12   C12       -3.839213544    -0.647998801    -0.216275521     C.2   1  noname   -0.095940
   13   C13       -3.861082373    -0.335850247     1.146773837     C.2   1  noname   -0.082929
   14   C14       -2.824778935     0.417691263     1.700861379     C.2   1  noname   -0.116863
   15   C15       -1.771032278     0.854040707     0.893323264     C.2   1  noname   -0.145085
   16   H16        4.692558728     0.681684622     1.771706220       H   1  noname    0.110395
   17   H17        4.637467129     1.251387355    -0.652461631       H   1  noname    0.111018
   18   H18        2.748781690     0.465645586    -2.075159470       H   1  noname    0.117923
   19   H19        0.960501239    -1.437856983     1.339153023       H   1  noname    0.113606
   20   H20        2.850068161    -0.671851105     2.767335471       H   1  noname    0.110599
   21   H21       -0.158874746    -1.531692816    -0.699253813       H   1  noname    0.107388
   22   H22        0.958246580    -1.771304578    -2.068115999       H   1  noname    0.109932
   23   H23        0.150446276     1.540210473    -0.716747203       H   1  noname    0.106759
   24   H24       -0.965657574     1.759409445    -2.090929944       H   1  noname    0.109916
   25   H25       -2.765550053    -0.452233748    -2.083806500       H   1  noname    0.117408
   26   H26       -4.646798648    -1.239439405    -0.652722289       H   1  noname    0.111040
   27   H27       -4.683420037    -0.684148780     1.774596943       H   1  noname    0.110434
   28   H28       -2.831443574     0.659320930     2.765528589       H   1  noname    0.110660
   29   H29       -0.949446684     1.429063401     1.328760114       H   1  noname    0.113957


@<TRIPOS>BOND
    1      1      2    2
    2      2      3    1
    3      3      4    2
    4      4      5    1
    5      5      6    2
    6      4      7    1
    7      7      8    1
    8      8      9    1
    9      9     10    1
   10     10     11    2
   11     11     12    1
   12     12     13    2
   13     13     14    1
   14     14     15    2
   15      6      1    1
   16     15     10    1
   17      1     16    1
   18      2     17    1
   19      3     18    1
   20      5     19    1
   21      6     20    1
   22      7     21    1
   23      7     22    1
   24      9     23    1
   25      9     24    1
   26     11     25    1
   27     12     26    1
   28     13     27    1
   29     14     28    1
   30     15     29    1
#
#	File Created by: Spartan'20 Export
#

@<TRIPOS>MOLECULE
M0391
14 14
SMALL
MULLIKEN_CHARGES


@<TRIPOS>ATOM
    1   C1        -0.028432640     0.000012796    -1.896782601     C.2   1  noname   -0.127621
    2   C2        -0.030316253    -1.203488924    -1.186341862     C.2   1  noname   -0.075050
    3   C3        -0.035740918    -1.208824502     0.206854717     C.2   1  noname   -0.212530
    4   C4        -0.038941107     0.000519196     0.926038844     C.2   1  noname    0.300216
    5   C5        -0.035927043     1.209825261     0.206564896     C.2   1  noname   -0.212768
    6   C6        -0.030483706     1.203814140    -1.186758634     C.2   1  noname   -0.074914
    7   N7        -0.109023992    -0.000189912     2.319489577     N.3   1  noname   -0.408525
    8   H8        -0.022926646    -0.000530390    -2.987444532       H   1  noname    0.096303
    9   H9        -0.025914642    -2.154515277    -1.723107115       H   1  noname    0.096440
   10   H10       -0.040290692    -2.157025521     0.751130266       H   1  noname    0.085627
   11   H11       -0.040791921     2.158098671     0.750541336       H   1  noname    0.085723
   12   H12       -0.026313194     2.154375753    -1.724204285       H   1  noname    0.096449
   13   H13        0.233596516     0.841726029     2.772734410       H   1  noname    0.223759
   14   H14        0.231506238    -0.843797322     2.771284983       H   1  noname    0.223745


@<TRIPOS>BOND
    1      1      2    2
    2      2      3    1
    3      3      4    2
    4      4      5    1
    5      5      6    2
    6      4      7    1
    7      6      1    1
    8      1      8    1
    9      2      9    1
   10      3     10    1
   11      5     11    1
   12      6     12    1
   13      7     13    1
   14      7     14    1
#
#	File Created by: Spartan'20 Export
#

@<TRIPOS>MOLECULE
M0392
14 14
SMALL
MULLIKEN_CHARGES


@<TRIPOS>ATOM
    1   C1         0.000015605     0.000000000    -1.911807934     C.2   1  noname   -0.071927
    2   C2        -1.211936646     0.000000000    -1.214663090     C.2   1  noname   -0.088763
    3   C3        -1.219876915     0.000000000     0.179216752     C.2   1  noname   -0.117076
    4   C4         0.000414830     0.000000000     0.853979140     C.2   1  noname    0.037660
    5   C5         1.220717329     0.000000000     0.178999304     C.2   1  noname   -0.117324
    6   C6         1.212245052     0.000000000    -1.214994440     C.2   1  noname   -0.088658
    7   N7        -0.000362256     0.000000000     2.337852182       N   1  noname    0.399409
    8   O8         1.092193908     0.000000000     2.908126089       O   1  noname   -0.258851
    9   O9        -1.093536890     0.000000000     2.907058033     O.2   1  noname   -0.258870
   10   H10       -0.000505318     0.000000000    -3.003435800       H   1  noname    0.125994
   11   H11       -2.157955860     0.000000000    -1.758269792       H   1  noname    0.126378
   12   H12       -2.148074513     0.000000000     0.748749531       H   1  noname    0.155812
   13   H13        2.148875982     0.000000000     0.748453290       H   1  noname    0.155771
   14   H14        2.157785693     0.000000000    -1.759263265       H   1  noname    0.126397


@<TRIPOS>BOND
    1      1      2    2
    2      2      3    1
    3      3      4    2
    4      4      5    1
    5      5      6    2
    6      4      7    1
    7      7      8    1
    8      7      9    2
    9      6      1    1
   10      1     10    1
   11      2     11    1
   12      3     12    1
   13      5     13    1
   14      6     14    1
#
#	File Created by: Spartan'20 Export
#

@<TRIPOS>MOLECULE
M0393
13 13
SMALL
MULLIKEN_CHARGES


@<TRIPOS>ATOM
    1   C1        -0.035323619     0.000000000    -1.666540675     C.2   1  noname   -0.110671
    2   C2        -1.251633429     0.000000000    -0.977721557     C.2   1  noname   -0.071126
    3   C3        -1.282152873     0.000000000     0.415663170     C.2   1  noname   -0.173527
    4   C4        -0.079388987     0.000000000     1.133354180     C.2   1  noname    0.267269
    5   C5         1.143941490     0.000000000     0.451497460     C.2   1  noname   -0.180543
    6   C6         1.159726736     0.000000000    -0.944395140     C.2   1  noname   -0.102910
    7   O7        -0.160496210     0.000000000     2.502852783     O.3   1  noname   -0.339327
    8   H8        -0.019236936     0.000000000    -2.757267031       H   1  noname    0.101586
    9   H9        -2.192068972     0.000000000    -1.532575562       H   1  noname    0.102182
   10   H10       -2.224982526     0.000000000     0.964756524       H   1  noname    0.104216
   11   H11        2.081531489     0.000000000     1.015853405       H   1  noname    0.092201
   12   H12        2.117122489     0.000000000    -1.469417544       H   1  noname    0.104047
   13   H13        0.742961349     0.000000000     2.863939986       H   1  noname    0.305304


@<TRIPOS>BOND
    1      1      2    2
    2      2      3    1
    3      3      4    2
    4      4      5    1
    5      5      6    2
    6      4      7    1
    7      6      1    1
    8      1      8    1
    9      2      9    1
   10      3     10    1
   11      5     11    1
   12      6     12    1
   13      7     13    1
#
#	File Created by: Spartan'20 Export
#

@<TRIPOS>MOLECULE
M0394
15 15
SMALL
MULLIKEN_CHARGES


@<TRIPOS>ATOM
    1   C1         0.267106616    -0.000449488    -2.178939667     C.2   1  noname   -0.073853
    2   C2         1.372418143     0.001253876    -1.320557042     C.2   1  noname   -0.099142
    3   C3         1.185324573     0.001912736     0.059985448     C.2   1  noname   -0.138513
    4   C4        -0.117782353     0.000954286     0.576849460     C.2   1  noname    0.085316
    5   C5        -1.228640859    -0.000674165    -0.277343464     C.2   1  noname   -0.142986
    6   C6        -1.028261727    -0.001402478    -1.658906158     C.2   1  noname   -0.088692
    7   P7        -0.462139619     0.000547447     2.343678285       P   1  noname    0.660530
    8   O8        -1.892544149     0.003977986     2.711793488     O.2   1  noname   -0.384935
    9   Cl9        0.594799530     1.587035372     3.093291098      Cl   1  noname   -0.120548
   10   Cl10       0.586246665    -1.593080929     3.090281269      Cl   1  noname   -0.120529
   11   H11        0.417989298    -0.001061588    -3.260001062       H   1  noname    0.124375
   12   H12        2.383484902     0.002012158    -1.730611767       H   1  noname    0.124706
   13   H13        2.044978829     0.003121602     0.732069581       H   1  noname    0.132343
   14   H14       -2.233332759    -0.001399351     0.147373979       H   1  noname    0.158449
   15   H15       -1.889647091    -0.002747464    -2.328963449       H   1  noname    0.126298


@<TRIPOS>BOND
    1      1      2    2
    2      2      3    1
    3      3      4    2
    4      4      5    1
    5      5      6    2
    6      4      7    1
    7      7      8    2
    8      7      9    1
    9      7     10    1
   10      6      1    1
   11      1     11    1
   12      2     12    1
   13      3     13    1
   14      5     14    1
   15      6     15    1
#
#	File Created by: Spartan'20 Export
#

@<TRIPOS>MOLECULE
M0395
25 26
SMALL
MULLIKEN_CHARGES


@<TRIPOS>ATOM
    1   C1         3.669292109     1.243159732    -0.143506375     C.2   1  noname   -0.073789
    2   C2         2.661085815     1.314233501    -1.110655116     C.2   1  noname   -0.098453
    3   C3         1.583559132     0.432621851    -1.058418781     C.2   1  noname   -0.139843
    4   C4         1.512091330    -0.521728018    -0.034201703     C.2   1  noname    0.037334
    5   C5         2.520324266    -0.593269025     0.935607782     C.2   1  noname   -0.153603
    6   C6         3.599150501     0.291610498     0.876154195     C.2   1  noname   -0.090666
    7   P7         0.122479416    -1.678869004     0.096428079       P   1  noname    0.607584
    8   O8         0.237280184    -2.642333025     1.222840764     O.2   1  noname   -0.406945
    9   C9        -1.410790721    -0.704892675     0.057413528     C.2   1  noname    0.115669
   10   C10       -1.426908609     0.591298769     0.594117006     C.2   1  noname   -0.145909
   11   C11       -2.625437633     1.304197982     0.659741171     C.2   1  noname   -0.113636
   12   C12       -3.809663492     0.728046432     0.195876513     C.2   1  noname   -0.078606
   13   C13       -3.797280410    -0.566613730    -0.331188387     C.2   1  noname   -0.098069
   14   C14       -2.603913950    -1.283059094    -0.400419730     C.2   1  noname   -0.154516
   15   Cl15       0.103736321    -2.606932202    -1.762500995      Cl   1  noname   -0.177280
   16   H16        4.514940037     1.931855907    -0.188392123       H   1  noname    0.120066
   17   H17        2.718351114     2.055669459    -1.909461796       H   1  noname    0.120498
   18   H18        0.797229581     0.478535388    -1.814828314       H   1  noname    0.129795
   19   H19        2.444486441    -1.345870591     1.722517105       H   1  noname    0.154889
   20   H20        4.387640865     0.235129617     1.628631401       H   1  noname    0.121763
   21   H21       -0.503555040     1.045825281     0.956885797       H   1  noname    0.140025
   22   H22       -2.631843312     2.313829519     1.074129460       H   1  noname    0.119301
   23   H23       -4.745448063     1.287938656     0.244610957       H   1  noname    0.118909
   24   H24       -4.722093201    -1.019242935    -0.693328930       H   1  noname    0.120603
   25   H25       -2.594712681    -2.291142293    -0.818051509       H   1  noname    0.129998


@<TRIPOS>BOND
    1      1      2    2
    2      2      3    1
    3      3      4    2
    4      4      5    1
    5      5      6    2
    6      4      7    1
    7      7      8    2
    8      7      9    1
    9      9     10    2
   10     10     11    1
   11     11     12    2
   12     12     13    1
   13     13     14    2
   14      7     15    1
   15      6      1    1
   16     14      9    1
   17      1     16    1
   18      2     17    1
   19      3     18    1
   20      5     19    1
   21      6     20    1
   22     10     21    1
   23     11     22    1
   24     12     23    1
   25     13     24    1
   26     14     25    1
#
#	File Created by: Spartan'20 Export
#

@<TRIPOS>MOLECULE
M0396
25 26
SMALL
MULLIKEN_CHARGES


@<TRIPOS>ATOM
    1   C1         3.583009938    -0.000011244    -1.042946123     C.2   1  noname   -0.070120
    2   C2         3.039164496    -1.212751108    -0.610885805     C.2   1  noname   -0.095267
    3   C3         1.946627103    -1.219732798     0.256904360     C.2   1  noname   -0.141895
    4   C4         1.410563574    -0.002177460     0.683205916     C.2   1  noname    0.075012
    5   C5         1.951322732     1.216970088     0.266672585     C.2   1  noname   -0.142071
    6   C6         3.043837540     1.211677625    -0.601478723     C.2   1  noname   -0.095309
    7   S7        -0.000387765    -0.006890250     1.791822894       S   1  noname    0.744990
    8   O8        -0.003415789    -1.282854441     2.496990025     O.2   1  noname   -0.375741
    9   O9        -0.002108143     1.262830976     2.507998915     O.2   1  noname   -0.375164
   10   C10       -1.405729901    -0.001795095     0.676216719     C.2   1  noname    0.074493
   11   C11       -1.931876308     1.218732103     0.245174573     C.2   1  noname   -0.141501
   12   C12       -3.027575550     1.217001635    -0.618741083     C.2   1  noname   -0.095315
   13   C13       -3.584813975     0.006952310    -1.041689664     C.2   1  noname   -0.070390
   14   C14       -3.054654173    -1.207192286    -0.596599651     C.2   1  noname   -0.094622
   15   C15       -1.958361486    -1.217805446     0.266738789     C.2   1  noname   -0.142485
   16   H16        4.437326395     0.000394995    -1.722262918       H   1  noname    0.117869
   17   H17        3.469216503    -2.157662153    -0.947381853       H   1  noname    0.117693
   18   H18        1.519468247    -2.154623296     0.621810725       H   1  noname    0.140331
   19   H19        1.527993919     2.150254394     0.639439426       H   1  noname    0.140859
   20   H20        3.478335326     2.156833836    -0.931156292       H   1  noname    0.117687
   21   H21       -1.497984095     2.151657964     0.606530185       H   1  noname    0.139721
   22   H22       -3.452005755     2.163603890    -0.957423707       H   1  noname    0.117632
   23   H23       -4.443875073     0.010149677    -1.715093588       H   1  noname    0.117800
   24   H24       -3.500340889    -2.150213684    -0.917725534       H   1  noname    0.117705
   25   H25       -1.543736870    -2.153350232     0.643879827       H   1  noname    0.141085


@<TRIPOS>BOND
    1      1      2    2
    2      2      3    1
    3      3      4    2
    4      4      5    1
    5      5      6    2
    6      4      7    1
    7      7      8    2
    8      7      9    2
    9      7     10    1
   10     10     11    2
   11     11     12    1
   12     12     13    2
   13     13     14    1
   14     14     15    2
   15      6      1    1
   16     15     10    1
   17      1     16    1
   18      2     17    1
   19      3     18    1
   20      5     19    1
   21      6     20    1
   22     11     21    1
   23     12     22    1
   24     13     23    1
   25     14     24    1
   26     15     25    1
#
#	File Created by: Spartan'20 Export
#

@<TRIPOS>MOLECULE
M0397
24 25
SMALL
MULLIKEN_CHARGES


@<TRIPOS>ATOM
    1   C1         0.918205228     3.509298738     0.295930076     C.2   1  noname   -0.077788
    2   C2         1.076689483     2.845677772    -0.924399031     C.2   1  noname   -0.108918
    3   C3         0.247784395     1.770685404    -1.248152522     C.2   1  noname   -0.139083
    4   C4        -0.721597174     1.361306511    -0.331211443     C.2   1  noname    0.111289
    5   C5        -0.902138768     2.022722048     0.881286739     C.2   1  noname   -0.145427
    6   C6        -0.071633398     3.101431536     1.193729733     C.2   1  noname   -0.092181
    7   S7        -1.867268622     0.000277493    -0.746904074       S   1  noname    0.444478
    8   O8        -2.943050909    -0.001934880     0.297918795     O.2   1  noname   -0.453215
    9   C9        -0.722056528    -1.361607244    -0.336449343     C.2   1  noname    0.113600
   10   C10        0.236167945    -1.779912295    -1.261144311     C.2   1  noname   -0.142437
   11   C11        1.067096955    -2.853704927    -0.937774338     C.2   1  noname   -0.108221
   12   C12        0.921384568    -3.507135483     0.289555964     C.2   1  noname   -0.077906
   13   C13       -0.058870266    -3.091644041     1.194395261     C.2   1  noname   -0.092080
   14   C14       -0.891248607    -2.014345979     0.882426720     C.2   1  noname   -0.144833
   15   H15        1.561600344     4.356061172     0.540985862       H   1  noname    0.113221
   16   H16        1.839820980     3.174148320    -1.632352663       H   1  noname    0.113092
   17   H17        0.350299434     1.264456344    -2.210730299       H   1  noname    0.103029
   18   H18       -1.696732122     1.689093021     1.552162565       H   1  noname    0.139330
   19   H19       -0.201922060     3.627907172     2.141090069       H   1  noname    0.114962
   20   H20        0.328062147    -1.282872212    -2.229443765       H   1  noname    0.104739
   21   H21        1.821824706    -3.189758048    -1.651195311       H   1  noname    0.113093
   22   H22        1.566592765    -4.352643218     0.534603209       H   1  noname    0.113231
   23   H23       -0.179841667    -3.611266734     2.146829437       H   1  noname    0.114932
   24   H24       -1.679168829    -1.676240470     1.558842669       H   1  noname    0.138794


@<TRIPOS>BOND
    1      1      2    2
    2      2      3    1
    3      3      4    2
    4      4      5    1
    5      5      6    2
    6      4      7    1
    7      7      8    2
    8      7      9    1
    9      9     10    2
   10     10     11    1
   11     11     12    2
   12     12     13    1
   13     13     14    2
   14      6      1    1
   15     14      9    1
   16      1     15    1
   17      2     16    1
   18      3     17    1
   19      5     18    1
   20      6     19    1
   21     10     20    1
   22     11     21    1
   23     12     22    1
   24     13     23    1
   25     14     24    1
#
#	File Created by: Spartan'20 Export
#

@<TRIPOS>MOLECULE
M0398
26 28
SMALL
MULLIKEN_CHARGES


@<TRIPOS>ATOM
    1   C1        -4.386871315     0.000000000    -0.941918123     C.2   1  noname   -0.071560
    2   C2        -3.190637234     0.000000000    -1.667029848     C.2   1  noname   -0.104672
    3   C3        -1.969544720     0.000000000    -0.999044045     C.2   1  noname   -0.150767
    4   C4        -1.926547471     0.000000000     0.409092448     C.2   1  noname    0.097968
    5   C5        -3.138938165     0.000000000     1.129161128     C.2   1  noname   -0.167204
    6   C6        -4.358032233     0.000000000     0.456117739     C.2   1  noname   -0.104020
    7   C7        -0.688467535     0.000000000     1.148361472     C.2   1  noname    0.073648
    8   C8         0.689330032     0.000000000     1.149102937     C.2   1  noname    0.074546
    9   C9        -0.000683868     0.000000000     2.408032513     C.2   1  noname    0.160239
   10   O10       -0.002214841     0.000000000     3.626837588     O.2   1  noname   -0.267917
   11   C11        1.927367013     0.000000000     0.409455172     C.2   1  noname    0.097483
   12   C12        1.969783481     0.000000000    -0.998726314     C.2   1  noname   -0.150334
   13   C13        3.190617066     0.000000000    -1.667072479     C.2   1  noname   -0.104677
   14   C14        4.387084083     0.000000000    -0.942197684     C.2   1  noname   -0.071424
   15   C15        4.358682671     0.000000000     0.455878222     C.2   1  noname   -0.104147
   16   C16        3.139792319     0.000000000     1.129176211     C.2   1  noname   -0.167140
   17   H17       -5.342926240     0.000000000    -1.468673808       H   1  noname    0.119165
   18   H18       -3.213895310     0.000000000    -2.758311122       H   1  noname    0.117559
   19   H19       -1.039341960     0.000000000    -1.567654198       H   1  noname    0.101621
   20   H20       -3.102061148     0.000000000     2.219844414       H   1  noname    0.147575
   21   H21       -5.291214470     0.000000000     1.021899370       H   1  noname    0.119777
   22   H22        1.038808077     0.000000000    -1.566398751       H   1  noname    0.101728
   23   H23        3.213081518     0.000000000    -2.758342987       H   1  noname    0.117570
   24   H24        5.342876325     0.000000000    -1.469232106       H   1  noname    0.119179
   25   H25        5.291715516     0.000000000     1.021777727       H   1  noname    0.119784
   26   H26        3.102238411     0.000000000     2.219864524       H   1  noname    0.147563


@<TRIPOS>BOND
    1      1      2    2
    2      2      3    1
    3      3      4    2
    4      4      5    1
    5      5      6    2
    6      4      7    1
    7      7      8    2
    8      8      9    1
    9      9     10    2
   10      8     11    1
   11     11     12    2
   12     12     13    1
   13     13     14    2
   14     14     15    1
   15     15     16    2
   16      6      1    1
   17      9      7    1
   18     16     11    1
   19      1     17    1
   20      2     18    1
   21      3     19    1
   22      5     20    1
   23      6     21    1
   24     12     22    1
   25     13     23    1
   26     14     24    1
   27     15     25    1
   28     16     26    1
#
#	File Created by: Spartan'20 Export
#

@<TRIPOS>MOLECULE
M0399
27 29
SMALL
MULLIKEN_CHARGES


@<TRIPOS>ATOM
    1   C1         0.374831223     0.000000000     4.611265831     C.2   1  noname   -0.072039
    2   C2        -0.950605963     0.000000000     4.167302957     C.2   1  noname   -0.112080
    3   C3        -1.236136875     0.000000000     2.805060448     C.2   1  noname   -0.133331
    4   C4        -0.199005542     0.000000000     1.853491861     C.2   1  noname    0.098610
    5   C5         1.131077575     0.000000000     2.312298537     C.2   1  noname   -0.171292
    6   C6         1.412301431     0.000000000     3.677510262     C.2   1  noname   -0.098284
    7   C7        -0.490082187     0.000000000     0.408493914     C.2   1  noname    0.358794
    8   C8        -1.724757059     0.000000000    -0.170791168     C.2   1  noname   -0.260033
    9   C9        -1.923325081     0.000000000    -1.610816562     C.2   1  noname    0.184548
   10   O10       -3.039565147     0.000000000    -2.143125280     O.2   1  noname   -0.284154
   11   C11       -0.662298795     0.000000000    -2.387246474     C.2   1  noname    0.046551
   12   C12       -0.656715939     0.000000000    -3.791763066     C.2   1  noname   -0.180125
   13   C13        0.540540555     0.000000000    -4.493082266     C.2   1  noname   -0.084503
   14   C14        1.761470548     0.000000000    -3.796811307     C.2   1  noname   -0.070034
   15   C15        1.783688807     0.000000000    -2.407393799     C.2   1  noname   -0.206386
   16   C16        0.568170574     0.000000000    -1.713915295     C.2   1  noname    0.209392
   17   O17        0.650402160     0.000000000    -0.343361581     O.3   1  noname   -0.146196
   18   H18        0.595475434     0.000000000     5.679964835       H   1  noname    0.118434
   19   H19       -1.770234845     0.000000000     4.887800903       H   1  noname    0.118541
   20   H20       -2.277453396     0.000000000     2.482009763       H   1  noname    0.114063
   21   H21        1.946373121     0.000000000     1.590423769       H   1  noname    0.130088
   22   H22        2.450781173     0.000000000     4.012917117       H   1  noname    0.116441
   23   H23       -2.620704584     0.000000000     0.446566425       H   1  noname    0.081974
   24   H24       -1.624336837     0.000000000    -4.297076508       H   1  noname    0.144731
   25   H25        0.537473908     0.000000000    -5.584173245       H   1  noname    0.119651
   26   H26        2.703269300     0.000000000    -4.348263430       H   1  noname    0.119351
   27   H27        2.719366442     0.000000000    -1.847286638       H   1  noname    0.125216


@<TRIPOS>BOND
    1      1      2    2
    2      2      3    1
    3      3      4    2
    4      4      5    1
    5      5      6    2
    6      4      7    1
    7      7      8    2
    8      8      9    1
    9      9     10    2
   10      9     11    1
   11     11     12    2
   12     12     13    1
   13     13     14    2
   14     14     15    1
   15     15     16    2
   16     16     17    1
   17      6      1    1
   18     17      7    1
   19     16     11    1
   20      1     18    1
   21      2     19    1
   22      3     20    1
   23      5     21    1
   24      6     22    1
   25      8     23    1
   26     12     24    1
   27     13     25    1
   28     14     26    1
   29     15     27    1
#
#	File Created by: Spartan'20 Export
#

@<TRIPOS>MOLECULE
M0400
21 22
SMALL
MULLIKEN_CHARGES


@<TRIPOS>ATOM
    1   C1        -0.116201473     0.000000000    -3.497938270     C.2   1  noname   -0.078625
    2   C2        -1.305164337     0.000000000    -2.763988387     C.2   1  noname   -0.091885
    3   C3        -1.273257870     0.000000000    -1.371309814     C.2   1  noname   -0.176419
    4   C4        -0.050248052     0.000000000    -0.675982081     C.2   1  noname    0.101899
    5   C5         1.138176961     0.000000000    -1.428377803     C.2   1  noname   -0.123734
    6   C6         1.105917126     0.000000000    -2.822180654     C.2   1  noname   -0.115512
    7   C7        -0.049048466     0.000000000     0.811178504     C.2   1  noname    0.233767
    8   C8         1.140448965     0.000000000     1.563863734     C.2   1  noname   -0.173194
    9   C9         1.074958056     0.000000000     2.953356990     C.2   1  noname   -0.078969
   10   C10       -0.174615811     0.000000000     3.572761361     C.2   1  noname   -0.077089
   11   C11       -1.304430001     0.000000000     2.751622813     C.2   1  noname   -0.072694
   12   N12       -1.255863630     0.000000000     1.416906376     N.2   1  noname   -0.144034
   13   H13       -0.141563019     0.000000000    -4.589274816       H   1  noname    0.110505
   14   H14       -2.266534983     0.000000000    -3.281663830       H   1  noname    0.110054
   15   H15       -2.195788780     0.000000000    -0.790765318       H   1  noname    0.126384
   16   H16        2.109340756     0.000000000    -0.932693375       H   1  noname    0.090183
   17   H17        2.041864209     0.000000000    -3.383938360       H   1  noname    0.108980
   18   H18        2.112938156     0.000000000     1.072661002       H   1  noname    0.095373
   19   H19        1.991892974     0.000000000     3.545680574       H   1  noname    0.113992
   20   H20       -0.275365520     0.000000000     4.658688952       H   1  noname    0.111928
   21   H21       -2.307455260     0.000000000     3.191392405       H   1  noname    0.104633


@<TRIPOS>BOND
    1      1      2    2
    2      2      3    1
    3      3      4    2
    4      4      5    1
    5      5      6    2
    6      4      7    1
    7      7      8    2
    8      8      9    1
    9      9     10    2
   10     10     11    1
   11     11     12    2
   12      6      1    1
   13     12      7    1
   14      1     13    1
   15      2     14    1
   16      3     15    1
   17      5     16    1
   18      6     17    1
   19      8     18    1
   20      9     19    1
   21     10     20    1
   22     11     21    1
#
#	File Created by: Spartan'20 Export
#

@<TRIPOS>MOLECULE
M0401
22 23
SMALL
MULLIKEN_CHARGES


@<TRIPOS>ATOM
    1   C1        -0.000881475    -0.000424066     3.588276103     C.2   1  noname   -0.083782
    2   C2         1.159570057     0.332671229     2.885209813     C.2   1  noname   -0.107753
    3   C3         1.160902564     0.334171440     1.491440866     C.2   1  noname   -0.168152
    4   C4         0.001836055     0.000702338     0.765959168     C.2   1  noname    0.149860
    5   C5        -1.158313922    -0.333690808     1.489199029     C.2   1  noname   -0.168087
    6   C6        -1.159851387    -0.333239000     2.882819493     C.2   1  noname   -0.107905
    7   C7         0.001557928     0.001460675    -0.708249058     C.2   1  noname    0.115154
    8   C8        -1.139369321     0.342183971    -1.458188778     C.2   1  noname   -0.107921
    9   C9        -1.129163582     0.340034411    -2.837994748     C.2   1  noname   -0.108524
   10   N10       -0.001182934    -0.000745410    -3.554001701       N   1  noname    0.324138
   11   O11       -0.002755768    -0.002874660    -4.827837483       O   1  noname   -0.420013
   12   C12        1.128350945    -0.339989825    -2.839627170     C.2   1  noname   -0.108468
   13   C13        1.141110067    -0.339994659    -1.459800304     C.2   1  noname   -0.107986
   14   H14       -0.002411412    -0.000537159     4.679486755       H   1  noname    0.114444
   15   H15        2.067755301     0.604836743     3.426057722       H   1  noname    0.114006
   16   H16        2.064428789     0.628893847     0.954481670       H   1  noname    0.114314
   17   H17       -2.061393828    -0.627719606     0.950796058       H   1  noname    0.114203
   18   H18       -2.069515522    -0.605518364     3.421319769       H   1  noname    0.113992
   19   H19       -2.059886620     0.646786043    -0.958661373       H   1  noname    0.124426
   20   H20       -1.978476844     0.606030452    -3.463414162       H   1  noname    0.134376
   21   H21        1.975951258    -0.608068825    -3.466333375       H   1  noname    0.134378
   22   H22        2.061739648    -0.644968766    -0.960938295       H   1  noname    0.124432


@<TRIPOS>BOND
    1      1      2    2
    2      2      3    1
    3      3      4    2
    4      4      5    1
    5      5      6    2
    6      4      7    1
    7      7      8    2
    8      8      9    1
    9      9     10    2
   10     10     11    1
   11     10     12    1
   12     12     13    2
   13      6      1    1
   14     13      7    1
   15      1     14    1
   16      2     15    1
   17      3     16    1
   18      5     17    1
   19      6     18    1
   20      8     19    1
   21      9     20    1
   22     12     21    1
   23     13     22    1
#
#	File Created by: Spartan'20 Export
#

@<TRIPOS>MOLECULE
M0402
21 22
SMALL
MULLIKEN_CHARGES


@<TRIPOS>ATOM
    1   C1        -0.000415402    -0.000015536     3.351483167     C.2   1  noname   -0.082383
    2   C2         1.151386782     0.362853689     2.649198140     C.2   1  noname   -0.105908
    3   C3         1.152950580     0.360601235     1.254611656     C.2   1  noname   -0.165344
    4   C4         0.001256399     0.000371572     0.533814772     C.2   1  noname    0.151738
    5   C5        -1.151030006    -0.360275638     1.253296333     C.2   1  noname   -0.165235
    6   C6        -1.151262964    -0.362868518     2.647760689     C.2   1  noname   -0.106061
    7   C7         0.000794134     0.000667989    -0.945372993     C.2   1  noname    0.113531
    8   C8        -1.128547596     0.389037728    -1.684078555     C.2   1  noname   -0.117494
    9   C9        -1.078123902     0.370720859    -3.077611192     C.2   1  noname   -0.062975
   10   N10       -0.000847724    -0.000512923    -3.786154314     N.2   1  noname   -0.135195
   11   C11        1.077250571    -0.371260751    -3.078570016     C.2   1  noname   -0.062889
   12   C12        1.129108367    -0.388434030    -1.685075590     C.2   1  noname   -0.117596
   13   H13       -0.001539878     0.000105063     4.442772071       H   1  noname    0.114547
   14   H14        2.052229048     0.657617332     3.190400233       H   1  noname    0.114342
   15   H15        2.048857368     0.669509945     0.713017683       H   1  noname    0.120548
   16   H16       -2.046947580    -0.668576903     0.711036664       H   1  noname    0.120452
   17   H17       -2.053216244    -0.657370635     3.187444000       H   1  noname    0.114322
   18   H18       -2.033875011     0.728414760    -1.177715297       H   1  noname    0.113347
   19   H19       -1.952729485     0.678560126    -3.659801155       H   1  noname    0.109632
   20   H20        1.950691634    -0.680437913    -3.661613086       H   1  noname    0.109656
   21   H21        2.034010909    -0.728707451    -1.178843209       H   1  noname    0.113405


@<TRIPOS>BOND
    1      1      2    2
    2      2      3    1
    3      3      4    2
    4      4      5    1
    5      5      6    2
    6      4      7    1
    7      7      8    2
    8      8      9    1
    9      9     10    2
   10     10     11    1
   11     11     12    2
   12      6      1    1
   13     12      7    1
   14      1     13    1
   15      2     14    1
   16      3     15    1
   17      5     16    1
   18      6     17    1
   19      8     18    1
   20      9     19    1
   21     11     20    1
   22     12     21    1
#
#	File Created by: Spartan'20 Export
#

@<TRIPOS>MOLECULE
M0403
24 26
SMALL
MULLIKEN_CHARGES


@<TRIPOS>ATOM
    1   C1         0.044248106     0.000000000    -4.420503081     C.2   1  noname   -0.097840
    2   C2        -1.187591992     0.000000000    -3.757568935     C.2   1  noname   -0.069809
    3   C3        -1.235924163     0.000000000    -2.367138601     C.2   1  noname   -0.182869
    4   C4        -0.044537233     0.000000000    -1.618286941     C.2   1  noname    0.041501
    5   C5         1.191498718     0.000000000    -2.288555374     C.2   1  noname   -0.199568
    6   C6         1.230169651     0.000000000    -3.682098893     C.2   1  noname   -0.076439
    7   C7        -0.127285649     0.000000000    -0.164530512     C.2   1  noname    0.356833
    8   N8        -1.207899954     0.000000000     0.568807993     N.2   1  noname   -0.170818
    9   C9        -0.744662430     0.000000000     1.877435494     C.2   1  noname    0.104300
   10   C10       -1.429279721     0.000000000     3.096119225     C.2   1  noname   -0.175113
   11   C11       -0.659702589     0.000000000     4.259267458     C.2   1  noname   -0.095621
   12   C12        0.747455190     0.000000000     4.215407369     C.2   1  noname   -0.092460
   13   C13        1.446838808     0.000000000     3.003468341     C.2   1  noname   -0.190085
   14   C14        0.661818197     0.000000000     1.861662596     C.2   1  noname    0.178874
   15   O15        1.064112102     0.000000000     0.548202934     O.3   1  noname   -0.160155
   16   H16        0.078637630     0.000000000    -5.511492999       H   1  noname    0.115316
   17   H17       -2.116426340     0.000000000    -4.330834781       H   1  noname    0.116098
   18   H18       -2.189877561     0.000000000    -1.839126332       H   1  noname    0.133511
   19   H19        2.117863006     0.000000000    -1.714431235       H   1  noname    0.125702
   20   H20        2.193182921     0.000000000    -4.195603667       H   1  noname    0.114928
   21   H21       -2.519467638     0.000000000     3.121763343       H   1  noname    0.117514
   22   H22       -1.158109666     0.000000000     5.229647332       H   1  noname    0.112938
   23   H23        1.309265058     0.000000000     5.150264445       H   1  noname    0.115122
   24   H24        2.535675548     0.000000000     2.958124819       H   1  noname    0.122180


@<TRIPOS>BOND
    1      1      2    2
    2      2      3    1
    3      3      4    2
    4      4      5    1
    5      5      6    2
    6      4      7    1
    7      7      8    2
    8      8      9    1
    9      9     10    2
   10     10     11    1
   11     11     12    2
   12     12     13    1
   13     13     14    2
   14     14     15    1
   15      6      1    1
   16     15      7    1
   17     14      9    1
   18      1     16    1
   19      2     17    1
   20      3     18    1
   21      5     19    1
   22      6     20    1
   23     10     21    1
   24     11     22    1
   25     12     23    1
   26     13     24    1
#
#	File Created by: Spartan'20 Export
#

@<TRIPOS>MOLECULE
M0404
24 26
SMALL
MULLIKEN_CHARGES


@<TRIPOS>ATOM
    1   C1        -2.873776514     0.000000000    -1.529401240     C.2   1  noname   -0.097643
    2   C2        -3.577974434     0.000000000    -0.320805075     C.2   1  noname   -0.063576
    3   C3        -2.868182690     0.000000000     0.872936519     C.2   1  noname   -0.138325
    4   C4        -1.464593299     0.000000000     0.874892597     C.2   1  noname    0.008737
    5   C5        -0.738931776     0.000000000    -0.342877789     C.2   1  noname    0.089598
    6   C6        -1.480586170     0.000000000    -1.537556953     C.2   1  noname   -0.113247
    7   C7         0.740651320     0.000000000    -0.342966133     C.2   1  noname    0.089446
    8   C8         1.481268823     0.000000000    -1.538080721     C.2   1  noname   -0.112791
    9   C9         2.874327005     0.000000000    -1.530150091     C.2   1  noname   -0.097647
   10   C10        3.578336567     0.000000000    -0.321304515     C.2   1  noname   -0.063285
   11   C11        2.868832792     0.000000000     0.872776259     C.2   1  noname   -0.138749
   12   C12        1.465380467     0.000000000     0.875074907     C.2   1  noname    0.008379
   13   C13        0.775201846     0.000000000     2.188177051     C.2   1  noname    0.151586
   14   O14        1.371536206     0.000000000     3.253795763     O.2   1  noname   -0.203691
   15   C15       -0.776259135     0.000000000     2.188026138     C.2   1  noname    0.152313
   16   O16       -1.373934935     0.000000000     3.252993667     O.2   1  noname   -0.204051
   17   H17       -3.414625365     0.000000000    -2.477786613       H   1  noname    0.120183
   18   H18       -4.669073872     0.000000000    -0.316820582       H   1  noname    0.122461
   19   H19       -3.375824148     0.000000000     1.838908025       H   1  noname    0.146295
   20   H20       -0.973544199     0.000000000    -2.501729837       H   1  noname    0.102512
   21   H21        0.972084308     0.000000000    -2.501239287       H   1  noname    0.102623
   22   H22        3.414617423     0.000000000    -2.478734112       H   1  noname    0.120212
   23   H23        4.669287912     0.000000000    -0.317181653       H   1  noname    0.122490
   24   H24        3.375781869     0.000000000     1.839053677       H   1  noname    0.146252


@<TRIPOS>BOND
    1      1      2    2
    2      2      3    1
    3      3      4    2
    4      4      5    1
    5      5      6    2
    6      5      7    1
    7      7      8    2
    8      8      9    1
    9      9     10    2
   10     10     11    1
   11     11     12    2
   12     12     13    1
   13     13     14    2
   14     13     15    1
   15     15     16    2
   16      6      1    1
   17     15      4    1
   18     12      7    1
   19      1     17    1
   20      2     18    1
   21      3     19    1
   22      6     20    1
   23      8     21    1
   24      9     22    1
   25     10     23    1
   26     11     24    1
#
#	File Created by: Spartan'20 Export
#

@<TRIPOS>MOLECULE
M0405
22 24
SMALL
MULLIKEN_CHARGES


@<TRIPOS>ATOM
    1   C1        -3.025771624     0.000000000    -1.143580613     C.2   1  noname   -0.073008
    2   C2        -3.466581724     0.000000000     0.184223827     C.2   1  noname   -0.069510
    3   C3        -2.541433934     0.000000000     1.236438532     C.2   1  noname   -0.171966
    4   C4        -1.188697984     0.000000000     0.922988573     C.2   1  noname    0.098664
    5   C5        -0.738123298     0.000000000    -0.414288772     C.2   1  noname    0.110521
    6   C6        -1.657855085     0.000000000    -1.458213411     C.2   1  noname   -0.192017
    7   C7         0.740679785     0.000000000    -0.413807539     C.2   1  noname    0.110045
    8   C8         1.658551399     0.000000000    -1.458553485     C.2   1  noname   -0.191490
    9   C9         3.026507037     0.000000000    -1.144172819     C.2   1  noname   -0.073111
   10   C10        3.467161123     0.000000000     0.183690261     C.2   1  noname   -0.069372
   11   C11        2.542506014     0.000000000     1.236559108     C.2   1  noname   -0.171937
   12   C12        1.190292051     0.000000000     0.923665974     C.2   1  noname    0.097740
   13   C13       -0.000280188     0.000000000     1.837918011     C.2   1  noname    0.063563
   14   O14       -0.002840645     0.000000000     3.059424411     O.2   1  noname   -0.213513
   15   H15       -3.760637898     0.000000000    -1.951532404       H   1  noname    0.115705
   16   H16       -4.537080665     0.000000000     0.396837498       H   1  noname    0.118711
   17   H17       -2.864688835     0.000000000     2.279405142       H   1  noname    0.135207
   18   H18       -1.334090123     0.000000000    -2.501221065       H   1  noname    0.111958
   19   H19        1.330651586     0.000000000    -2.500374191       H   1  noname    0.112156
   20   H20        3.760697543     0.000000000    -1.952370406       H   1  noname    0.115740
   21   H21        4.537225107     0.000000000     0.396871732       H   1  noname    0.118743
   22   H22        2.863810358     0.000000000     2.280091637       H   1  noname    0.135275


@<TRIPOS>BOND
    1      1      2    2
    2      2      3    1
    3      3      4    2
    4      4      5    1
    5      5      6    2
    6      5      7    1
    7      7      8    2
    8      8      9    1
    9      9     10    2
   10     10     11    1
   11     11     12    2
   12     12     13    1
   13     13     14    2
   14      6      1    1
   15     13      4    1
   16     12      7    1
   17      1     15    1
   18      2     16    1
   19      3     17    1
   20      6     18    1
   21      8     19    1
   22      9     20    1
   23     10     21    1
   24     11     22    1
#
#	File Created by: Spartan'20 Export
#

@<TRIPOS>MOLECULE
M0406
21 22
SMALL
MULLIKEN_CHARGES


@<TRIPOS>ATOM
    1   C1        -2.480874673    -1.177264245    -0.151310108     C.2   1  noname   -0.098550
    2   C2        -2.754304541     0.122259066     0.285440398     C.2   1  noname   -0.094225
    3   C3        -1.703734045     1.019283591     0.468349349     C.2   1  noname   -0.188213
    4   C4        -0.376723276     0.644390121     0.217967873     C.2   1  noname    0.047536
    5   C5        -0.099103092    -0.663298241    -0.217296502     C.2   1  noname    0.107999
    6   C6        -1.163438971    -1.558463102    -0.397909326     C.2   1  noname   -0.175330
    7   C7         1.324343511    -1.096490562    -0.498458524     C.3   1  noname   -0.194798
    8   C8         2.349951157    -0.131368080     0.107253603     C.3   1  noname   -0.109250
    9   N9         2.036665284     1.275098692    -0.156170494     N.3   1  noname   -0.227080
   10   C10        0.752009052     1.637665595     0.440089608     C.3   1  noname   -0.157529
   11   H11       -3.293026665    -1.891941005    -0.298174574       H   1  noname    0.105996
   12   H12       -3.782599273     0.433116512     0.479997342       H   1  noname    0.106359
   13   H13       -1.913233523     2.037626401     0.809128706       H   1  noname    0.102283
   14   H14       -0.947507054    -2.576784143    -0.734007630       H   1  noname    0.101819
   15   H15        1.478147403    -1.150755947    -1.591947312       H   1  noname    0.097908
   16   H16        1.482506095    -2.120571649    -0.120196638       H   1  noname    0.099141
   17   H17        2.381925652    -0.259238183     1.203091672       H   1  noname    0.087710
   18   H18        3.360297154    -0.351746621    -0.269805096       H   1  noname    0.116646
   19   H19        1.986571996     1.418442687    -1.168816719       H   1  noname    0.179026
   20   H20        0.906626669     1.760696078     1.528931682       H   1  noname    0.101829
   21   H21        0.455501140     2.629343035     0.063842691       H   1  noname    0.125327


@<TRIPOS>BOND
    1      1      2    2
    2      2      3    1
    3      3      4    2
    4      4      5    1
    5      5      6    2
    6      5      7    1
    7      7      8    1
    8      8      9    1
    9      9     10    1
   10      6      1    1
   11     10      4    1
   12      1     11    1
   13      2     12    1
   14      3     13    1
   15      6     14    1
   16      7     15    1
   17      7     16    1
   18      8     17    1
   19      8     18    1
   20      9     19    1
   21     10     20    1
   22     10     21    1
#
#	File Created by: Spartan'20 Export
#

@<TRIPOS>MOLECULE
M0407
25 27
SMALL
MULLIKEN_CHARGES


@<TRIPOS>ATOM
    1   C1        -3.707019980    -0.000346850    -0.620069024     C.2   1  noname   -0.080941
    2   C2        -3.698977443    -0.000289532     0.781962109     C.2   1  noname   -0.070947
    3   C3        -2.488442572    -0.000012607     1.459951113     C.2   1  noname   -0.162468
    4   C4        -1.271342823     0.000213538     0.754263592     C.2   1  noname    0.067513
    5   C5        -1.276150888     0.000179505    -0.652251982     C.2   1  noname    0.019224
    6   C6        -2.507302485    -0.000105673    -1.324525613     C.2   1  noname   -0.177764
    7   C7        -0.000000265     0.000502995    -1.445336664     C.3   1  noname   -0.070977
    8   C8         1.276984897     0.000145562    -0.653125710     C.2   1  noname    0.018831
    9   C9         2.508202362    -0.000194487    -1.325074328     C.2   1  noname   -0.177738
   10   C10        3.707754216    -0.000384573    -0.620100533     C.2   1  noname   -0.080787
   11   C11        3.699347891    -0.000237907     0.781948287     C.2   1  noname   -0.071031
   12   C12        2.488604358     0.000046784     1.459496058     C.2   1  noname   -0.162246
   13   C13        1.272056585     0.000227767     0.753515543     C.2   1  noname    0.067677
   14   C14        0.000238766     0.000415426     1.527202769     C.2   1  noname    0.181419
   15   O15       -0.000165038     0.000640521     2.759331662     O.2   1  noname   -0.276478
   16   H16       -4.654673630    -0.000590910    -1.162520940       H   1  noname    0.113812
   17   H17       -4.639956113    -0.000479239     1.334919425       H   1  noname    0.113838
   18   H18       -2.443363842     0.000017230     2.550153918       H   1  noname    0.141102
   19   H19       -2.518539174    -0.000157838    -2.417959352       H   1  noname    0.112052
   20   H20       -0.001318917    -0.872649509    -2.123624596       H   1  noname    0.120531
   21   H21       -0.001293157     0.874283093    -2.122823873       H   1  noname    0.120536
   22   H22        2.518795703    -0.000332196    -2.418476789       H   1  noname    0.112112
   23   H23        4.655381991    -0.000649107    -1.162306033       H   1  noname    0.113839
   24   H24        4.639671233    -0.000368188     1.335768251       H   1  noname    0.113870
   25   H25        2.441508325     0.000126195     2.549682709       H   1  noname    0.141140


@<TRIPOS>BOND
    1      1      2    2
    2      2      3    1
    3      3      4    2
    4      4      5    1
    5      5      6    2
    6      5      7    1
    7      7      8    1
    8      8      9    2
    9      9     10    1
   10     10     11    2
   11     11     12    1
   12     12     13    2
   13     13     14    1
   14     14     15    2
   15      6      1    1
   16     14      4    1
   17     13      8    1
   18      1     16    1
   19      2     17    1
   20      3     18    1
   21      6     19    1
   22      7     20    1
   23      7     21    1
   24      9     22    1
   25     10     23    1
   26     11     24    1
   27     12     25    1
#
#	File Created by: Spartan'20 Export
#

@<TRIPOS>MOLECULE
M0408
15 16
SMALL
MULLIKEN_CHARGES


@<TRIPOS>ATOM
    1   C1         0.477075005     0.000000000    -2.018170913     C.2   1  noname   -0.082941
    2   C2        -0.921279772     0.000000000    -1.938005813     C.2   1  noname   -0.083284
    3   C3        -1.583909112     0.000000000    -0.701371130     C.2   1  noname   -0.177555
    4   C4        -0.780198499     0.000000000     0.424840609     C.2   1  noname    0.209891
    5   C5         0.618623426     0.000000000     0.355922674     C.2   1  noname    0.121532
    6   C6         1.279153125     0.000000000    -0.869467742     C.2   1  noname   -0.185056
    7   N7         1.036664800     0.000000000     1.677574115   N.pl3   1  noname   -0.122472
    8   C8        -0.034476007     0.000000000     2.540624817     C.2   1  noname    0.190069
    9   S9        -0.046100180     0.000000000     4.174869864     S.2   1  noname   -0.275997
   10   O10       -1.173839846     0.000000000     1.745391910     O.3   1  noname   -0.102773
   11   H11        0.954492599     0.000000000    -2.998930867       H   1  noname    0.112291
   12   H12       -1.511173986     0.000000000    -2.855570254       H   1  noname    0.113211
   13   H13       -2.670775440     0.000000000    -0.624837308       H   1  noname    0.120148
   14   H14        2.367224452     0.000000000    -0.937554524       H   1  noname    0.110782
   15   H15        1.988519436     0.000000000     2.024684562       H   1  noname    0.228346


@<TRIPOS>BOND
    1      1      2    2
    2      2      3    1
    3      3      4    2
    4      4      5    1
    5      5      6    2
    6      5      7    1
    7      7      8    1
    8      8      9    2
    9      8     10    1
   10      6      1    1
   11     10      4    1
   12      1     11    1
   13      2     12    1
   14      3     13    1
   15      6     14    1
   16      7     15    1
#
#	File Created by: Spartan'20 Export
#

@<TRIPOS>MOLECULE
M0409
23 25
SMALL
MULLIKEN_CHARGES


@<TRIPOS>ATOM
    1   C1        -3.662499606     0.000000000    -0.526863581     C.2   1  noname   -0.087022
    2   C2        -3.583152654     0.000000000     0.876326060     C.2   1  noname   -0.069908
    3   C3        -2.350795314     0.000000000     1.517224497     C.2   1  noname   -0.174971
    4   C4        -1.181566414     0.000000000     0.745863215     C.2   1  noname    0.198007
    5   C5        -1.237661493     0.000000000    -0.659161651     C.2   1  noname    0.047081
    6   C6        -2.499598238     0.000000000    -1.280593512     C.2   1  noname   -0.179879
    7   C7         0.000235727     0.000000000    -1.462391287     C.2   1  noname    0.181425
    8   O8        -0.000565750     0.000000000    -2.695347151     O.2   1  noname   -0.280821
    9   C9         1.238639239     0.000000000    -0.659993768     C.2   1  noname    0.046918
   10   C10        2.500347403     0.000000000    -1.281367801     C.2   1  noname   -0.180093
   11   C11        3.662975458     0.000000000    -0.527077189     C.2   1  noname   -0.086905
   12   C12        3.583236851     0.000000000     0.876180402     C.2   1  noname   -0.069862
   13   C13        2.350798039     0.000000000     1.516694149     C.2   1  noname   -0.174643
   14   C14        1.182465331     0.000000000     0.744928630     C.2   1  noname    0.198393
   15   O15        0.000437590     0.000000000     1.438686374     O.3   1  noname   -0.139651
   16   H16       -4.636856683     0.000000000    -1.017614940       H   1  noname    0.119630
   17   H17       -4.496731471     0.000000000     1.473550195       H   1  noname    0.120335
   18   H18       -2.269782314     0.000000000     2.604689066       H   1  noname    0.123458
   19   H19       -2.518859581     0.000000000    -2.371971132       H   1  noname    0.143766
   20   H20        2.518213083     0.000000000    -2.372738451       H   1  noname    0.143850
   21   H21        4.637337931     0.000000000    -1.017416319       H   1  noname    0.119675
   22   H22        4.495989825     0.000000000     1.474364646       H   1  noname    0.120364
   23   H23        2.267393042     0.000000000     2.604029550       H   1  noname    0.123505


@<TRIPOS>BOND
    1      1      2    2
    2      2      3    1
    3      3      4    2
    4      4      5    1
    5      5      6    2
    6      5      7    1
    7      7      8    2
    8      7      9    1
    9      9     10    2
   10     10     11    1
   11     11     12    2
   12     12     13    1
   13     13     14    2
   14     14     15    1
   15      6      1    1
   16     15      4    1
   17     14      9    1
   18      1     16    1
   19      2     17    1
   20      3     18    1
   21      6     19    1
   22     10     20    1
   23     11     21    1
   24     12     22    1
   25     13     23    1
#
#	File Created by: Spartan'20 Export
#

@<TRIPOS>MOLECULE
M0410
23 25
SMALL
MULLIKEN_CHARGES


@<TRIPOS>ATOM
    1   C1        -3.716601882     0.000000000    -0.654575802     C.2   1  noname   -0.086819
    2   C2        -3.793314509     0.000000000     0.747588829     C.2   1  noname   -0.074240
    3   C3        -2.635158022     0.000000000     1.510102316     C.2   1  noname   -0.188853
    4   C4        -1.373954230     0.000000000     0.882112748     C.2   1  noname    0.124839
    5   C5        -1.280698034     0.000000000    -0.525688718     C.2   1  noname    0.029833
    6   C6        -2.476637516     0.000000000    -1.272373558     C.2   1  noname   -0.158272
    7   C7         0.000419897     0.000000000    -1.278940614     C.2   1  noname    0.246926
    8   O8        -0.000157896     0.000000000    -2.514306463     O.2   1  noname   -0.293693
    9   C9         1.281728558     0.000000000    -0.526244268     C.2   1  noname    0.029878
   10   C10        2.477404426     0.000000000    -1.272996652     C.2   1  noname   -0.158361
   11   C11        3.717168126     0.000000000    -0.654878658     C.2   1  noname   -0.086756
   12   C12        3.793404771     0.000000000     0.747362859     C.2   1  noname   -0.074184
   13   C13        2.635139202     0.000000000     1.509571312     C.2   1  noname   -0.188729
   14   C14        1.373965522     0.000000000     0.881588316     C.2   1  noname    0.124429
   15   S15       -0.000343514     0.000000000     1.957394583     S.3   1  noname   -0.008078
   16   H16       -4.628440718     0.000000000    -1.253793602       H   1  noname    0.118661
   17   H17       -4.765113567     0.000000000     1.244641218       H   1  noname    0.119981
   18   H18       -2.694221605     0.000000000     2.600535237       H   1  noname    0.120957
   19   H19       -2.379285048     0.000000000    -2.359097829       H   1  noname    0.145438
   20   H20        2.378528830     0.000000000    -2.359581021       H   1  noname    0.145508
   21   H21        4.628846584     0.000000000    -1.253952659       H   1  noname    0.118698
   22   H22        4.764540646     0.000000000     1.245410649       H   1  noname    0.120015
   23   H23        2.692779980     0.000000000     2.600121778       H   1  noname    0.120918


@<TRIPOS>BOND
    1      1      2    2
    2      2      3    1
    3      3      4    2
    4      4      5    1
    5      5      6    2
    6      5      7    1
    7      7      8    2
    8      7      9    1
    9      9     10    2
   10     10     11    1
   11     11     12    2
   12     12     13    1
   13     13     14    2
   14     14     15    1
   15      6      1    1
   16     15      4    1
   17     14      9    1
   18      1     16    1
   19      2     17    1
   20      3     18    1
   21      6     19    1
   22     10     20    1
   23     11     21    1
   24     12     22    1
   25     13     23    1
#
#	File Created by: Spartan'20 Export
#

@<TRIPOS>MOLECULE
M0411
23 25
SMALL
MULLIKEN_CHARGES


@<TRIPOS>ATOM
    1   C1        -3.640456389     0.000000000    -0.571850018     C.2   1  noname   -0.080931
    2   C2        -3.590102857     0.000000000     0.851415679     C.2   1  noname   -0.079208
    3   C3        -2.386680252     0.000000000     1.513866807     C.2   1  noname   -0.157192
    4   C4        -1.155838125     0.000000000     0.789808939     C.2   1  noname    0.094148
    5   C5        -1.211357823     0.000000000    -0.658056150     C.2   1  noname    0.237538
    6   C6        -2.480837804     0.000000000    -1.306820216     C.2   1  noname   -0.208670
    7   C7         0.000328925     0.000000000    -1.354898196     C.2   1  noname   -0.277618
    8   C8         1.212552321     0.000000000    -0.658860008     C.2   1  noname    0.237097
    9   C9         2.481632136     0.000000000    -1.307512412     C.2   1  noname   -0.208826
   10   C10        3.640972828     0.000000000    -0.571990507     C.2   1  noname   -0.080668
   11   C11        3.590288491     0.000000000     0.851340528     C.2   1  noname   -0.079123
   12   C12        2.386796486     0.000000000     1.513383771     C.2   1  noname   -0.156811
   13   C13        1.157134213     0.000000000     0.788844002     C.2   1  noname    0.094905
   14   N14        0.000696592     0.000000000     1.478615633     N.2   1  noname   -0.121276
   15   H15       -4.608929170     0.000000000    -1.075387031       H   1  noname    0.114910
   16   H16       -4.523608709     0.000000000     1.417644097       H   1  noname    0.114574
   17   H17       -2.329209944     0.000000000     2.603231727       H   1  noname    0.112403
   18   H18       -2.512824108     0.000000000    -2.399395957       H   1  noname    0.108437
   19   H19       -0.001408874     0.000000000    -2.449369627       H   1  noname    0.099055
   20   H20        2.512075923     0.000000000    -2.400063376       H   1  noname    0.108536
   21   H21        4.609397276     0.000000000    -1.075177455       H   1  noname    0.114934
   22   H22        4.522951431     0.000000000     1.418589558       H   1  noname    0.114591
   23   H23        2.326427431     0.000000000     2.602640213       H   1  noname    0.112425


@<TRIPOS>BOND
    1      1      2    2
    2      2      3    1
    3      3      4    2
    4      4      5    1
    5      5      6    2
    6      5      7    1
    7      7      8    2
    8      8      9    1
    9      9     10    2
   10     10     11    1
   11     11     12    2
   12     12     13    1
   13     13     14    2
   14      6      1    1
   15     14      4    1
   16     13      8    1
   17      1     15    1
   18      2     16    1
   19      3     17    1
   20      6     18    1
   21      7     19    1
   22      9     20    1
   23     10     21    1
   24     11     22    1
   25     12     23    1
#
#	File Created by: Spartan'20 Export
#

@<TRIPOS>MOLECULE
M0412
17 18
SMALL
MULLIKEN_CHARGES


@<TRIPOS>ATOM
    1   C1         0.118469993     0.000000000     2.437893927     C.2   1  noname   -0.101658
    2   C2        -1.255978274     0.000000000     2.148959550     C.2   1  noname   -0.078950
    3   C3        -1.707940656     0.000000000     0.833062948     C.2   1  noname   -0.164532
    4   C4        -0.774564848     0.000000000    -0.207056387     C.2   1  noname    0.196406
    5   C5         0.612791002     0.000000000     0.058791199     C.2   1  noname    0.161908
    6   C6         1.040966398     0.000000000     1.400681884     C.2   1  noname   -0.179017
    7   C7         1.501144151     0.000000000    -1.069330573     C.2   1  noname   -0.110886
    8   C8         1.015315354     0.000000000    -2.336028065     C.2   1  noname   -0.165951
    9   C9        -0.412870466     0.000000000    -2.612908528     C.2   1  noname    0.207926
   10   O10       -0.939597365     0.000000000    -3.703092767     O.2   1  noname   -0.227045
   11   O11       -1.258689899     0.000000000    -1.482957486     O.3   1  noname   -0.103272
   12   H12        0.459045977     0.000000000     3.473816295       H   1  noname    0.120004
   13   H13       -1.982116054     0.000000000     2.963573931       H   1  noname    0.122410
   14   H14       -2.770532778     0.000000000     0.588280005       H   1  noname    0.132173
   15   H15        2.113265452     0.000000000     1.608700773       H   1  noname    0.116923
   16   H16        2.579503768     0.000000000    -0.889713470       H   1  noname    0.123585
   17   H17        1.661788244     0.000000000    -3.212673235       H   1  noname    0.128465


@<TRIPOS>BOND
    1      1      2    2
    2      2      3    1
    3      3      4    2
    4      4      5    1
    5      5      6    2
    6      5      7    1
    7      7      8    2
    8      8      9    1
    9      9     10    2
   10      9     11    1
   11      6      1    1
   12     11      4    1
   13      1     12    1
   14      2     13    1
   15      3     14    1
   16      6     15    1
   17      7     16    1
   18      8     17    1
#
#	File Created by: Spartan'20 Export
#

@<TRIPOS>MOLECULE
M0413
24 26
SMALL
MULLIKEN_CHARGES


@<TRIPOS>ATOM
    1   C1        -3.559527651     0.000000000    -0.271808109     C.2   1  noname   -0.083012
    2   C2        -2.877860635     0.000000000    -1.503723387     C.2   1  noname   -0.112348
    3   C3        -1.493945796     0.000000000    -1.537664955     C.2   1  noname   -0.130826
    4   C4        -0.725969783     0.000000000    -0.350537031     C.2   1  noname    0.094753
    5   C5        -1.422934610     0.000000000     0.897667918     C.2   1  noname    0.162270
    6   C6        -2.837591456     0.000000000     0.906927526     C.2   1  noname   -0.177508
    7   C7        -0.681595960     0.000000000     2.122955232     C.2   1  noname   -0.175869
    8   C8         0.681559446     0.000000000     2.123097847     C.2   1  noname   -0.176013
    9   C9         1.423821329     0.000000000     0.897914843     C.2   1  noname    0.161608
   10   C10        0.727611627     0.000000000    -0.350586813     C.2   1  noname    0.094468
   11   C11        1.494453569     0.000000000    -1.538227725     C.2   1  noname   -0.130524
   12   C12        2.878250904     0.000000000    -1.504432127     C.2   1  noname   -0.112237
   13   C13        3.559706727     0.000000000    -0.272245713     C.2   1  noname   -0.082756
   14   C14        2.838152557     0.000000000     0.906795479     C.2   1  noname   -0.177500
   15   H15       -4.651000347     0.000000000    -0.250065552       H   1  noname    0.109756
   16   H16       -3.441822866     0.000000000    -2.438576418       H   1  noname    0.109329
   17   H17       -0.997728630     0.000000000    -2.508568646       H   1  noname    0.095216
   18   H18       -3.354204129     0.000000000     1.870083736       H   1  noname    0.107853
   19   H19       -1.238088388     0.000000000     3.063424224       H   1  noname    0.104197
   20   H20        1.236021593     0.000000000     3.064582192       H   1  noname    0.104178
   21   H21        0.996039590     0.000000000    -2.508094320       H   1  noname    0.095352
   22   H22        3.441882711     0.000000000    -2.439314885       H   1  noname    0.109372
   23   H23        4.651009788     0.000000000    -0.250013224       H   1  noname    0.109777
   24   H24        3.353760411     0.000000000     1.870409906       H   1  noname    0.107901


@<TRIPOS>BOND
    1      1      2    2
    2      2      3    1
    3      3      4    2
    4      4      5    1
    5      5      6    2
    6      5      7    1
    7      7      8    2
    8      8      9    1
    9      9     10    2
   10     10     11    1
   11     11     12    2
   12     12     13    1
   13     13     14    2
   14      6      1    1
   15     10      4    1
   16     14      9    1
   17      1     15    1
   18      2     16    1
   19      3     17    1
   20      6     18    1
   21      7     19    1
   22      8     20    1
   23     11     21    1
   24     12     22    1
   25     13     23    1
   26     14     24    1
#
#	File Created by: Spartan'20 Export
#

@<TRIPOS>MOLECULE
M0414
23 25
SMALL
MULLIKEN_CHARGES


@<TRIPOS>ATOM
    1   C1        -0.390810728     0.000000000    -3.474735190     C.2   1  noname   -0.082026
    2   C2        -1.616564982     0.000000000    -2.779334272     C.2   1  noname   -0.082237
    3   C3        -1.635928495     0.000000000    -1.395023818     C.2   1  noname   -0.169055
    4   C4        -0.431524621     0.000000000    -0.659514245     C.2   1  noname    0.108146
    5   C5         0.811931723     0.000000000    -1.359666025     C.2   1  noname    0.135820
    6   C6         0.802243949     0.000000000    -2.774477359     C.2   1  noname   -0.184299
    7   C7         2.040272801     0.000000000    -0.621929175     C.2   1  noname   -0.141862
    8   C8         2.047441931     0.000000000     0.743112843     C.2   1  noname   -0.203203
    9   C9         0.821959710     0.000000000     1.483415531     C.2   1  noname    0.172142
   10   C10       -0.426419908     0.000000000     0.790511635     C.2   1  noname    0.102812
   11   N11       -1.616452421     0.000000000     1.439960555     N.2   1  noname   -0.145209
   12   C12       -1.607746607     0.000000000     2.766779680     C.2   1  noname   -0.075534
   13   C13       -0.433072604     0.000000000     3.544949535     C.2   1  noname   -0.065602
   14   C14        0.785882763     0.000000000     2.893869901     C.2   1  noname   -0.157564
   15   H15       -0.384275095     0.000000000    -4.566490775       H   1  noname    0.110958
   16   H16       -2.555555349     0.000000000    -3.336389204       H   1  noname    0.111166
   17   H17       -2.576256731     0.000000000    -0.843414814       H   1  noname    0.129870
   18   H18        1.755379425     0.000000000    -3.308740143       H   1  noname    0.108513
   19   H19        2.979229154     0.000000000    -1.180558277       H   1  noname    0.108676
   20   H20        2.990854576     0.000000000     1.294247786       H   1  noname    0.103296
   21   H21       -2.588158356     0.000000000     3.255135951       H   1  noname    0.105441
   22   H22       -0.496582769     0.000000000     4.633946083       H   1  noname    0.111729
   23   H23        1.724152634     0.000000000     3.454343797       H   1  noname    0.111776


@<TRIPOS>BOND
    1      1      2    2
    2      2      3    1
    3      3      4    2
    4      4      5    1
    5      5      6    2
    6      5      7    1
    7      7      8    2
    8      8      9    1
    9      9     10    2
   10     10     11    1
   11     11     12    2
   12     12     13    1
   13     13     14    2
   14      6      1    1
   15     10      4    1
   16     14      9    1
   17      1     15    1
   18      2     16    1
   19      3     17    1
   20      6     18    1
   21      7     19    1
   22      8     20    1
   23     12     21    1
   24     13     22    1
   25     14     23    1
#
#	File Created by: Spartan'20 Export
#

@<TRIPOS>MOLECULE
M0415
17 18
SMALL
MULLIKEN_CHARGES


@<TRIPOS>ATOM
    1   C1         0.564213145     0.000000000     2.348387421     C.2   1  noname   -0.077835
    2   C2        -0.851879571     0.000000000     2.326059502     C.2   1  noname   -0.083350
    3   C3        -1.534956160     0.000000000     1.127849876     C.2   1  noname   -0.150349
    4   C4        -0.829668557     0.000000000    -0.103242678     C.2   1  noname    0.108804
    5   C5         0.606347452     0.000000000    -0.079903168     C.2   1  noname    0.180561
    6   C6         1.279064847     0.000000000     1.168944765     C.2   1  noname   -0.193779
    7   C7         1.279417452     0.000000000    -1.326664590     C.2   1  noname   -0.167114
    8   C8         0.543889680     0.000000000    -2.490631485     C.2   1  noname   -0.057052
    9   C9        -0.870759956     0.000000000    -2.402843032     C.2   1  noname   -0.066401
   10   N10       -1.546609418     0.000000000    -1.267313930     N.2   1  noname   -0.126619
   11   H11        1.088507322     0.000000000     3.305551371       H   1  noname    0.114977
   12   H12       -1.404966440     0.000000000     3.267140600       H   1  noname    0.114857
   13   H13       -2.625346876     0.000000000     1.085364284       H   1  noname    0.113974
   14   H14        2.371950738     0.000000000     1.179978685       H   1  noname    0.107336
   15   H15        2.372233274     0.000000000    -1.348389190       H   1  noname    0.110826
   16   H16        1.027116252     0.000000000    -3.468996670       H   1  noname    0.111260
   17   H17       -1.468553182     0.000000000    -3.321291761       H   1  noname    0.108630


@<TRIPOS>BOND
    1      1      2    2
    2      2      3    1
    3      3      4    2
    4      4      5    1
    5      5      6    2
    6      5      7    1
    7      7      8    2
    8      8      9    1
    9      9     10    2
   10      6      1    1
   11     10      4    1
   12      1     11    1
   13      2     12    1
   14      3     13    1
   15      6     14    1
   16      7     15    1
   17      8     16    1
   18      9     17    1
#
#	File Created by: Spartan'20 Export
#

@<TRIPOS>MOLECULE
M0416
23 25
SMALL
MULLIKEN_CHARGES


@<TRIPOS>ATOM
    1   C1        -0.107192600     0.000000000     3.505628496     C.2   1  noname   -0.082517
    2   C2        -1.355687514     0.000000000     2.852144735     C.2   1  noname   -0.097462
    3   C3        -1.431340694     0.000000000     1.469129461     C.2   1  noname   -0.165209
    4   C4        -0.259368825     0.000000000     0.680446897     C.2   1  noname    0.058895
    5   C5         0.999160682     0.000000000     1.345590896     C.2   1  noname    0.164844
    6   C6         1.055719974     0.000000000     2.757123030     C.2   1  noname   -0.163122
    7   C7         2.191457899     0.000000000     0.546196132     C.2   1  noname   -0.130106
    8   N8         2.220568591     0.000000000    -0.758972472     N.2   1  noname   -0.122205
    9   C9         1.013054775     0.000000000    -1.431365510     C.2   1  noname    0.121227
   10   C10       -0.252274099     0.000000000    -0.767494326     C.2   1  noname    0.171862
   11   C11       -1.423928116     0.000000000    -1.557005228     C.2   1  noname   -0.204170
   12   C12       -1.354685044     0.000000000    -2.940140965     C.2   1  noname   -0.077411
   13   C13       -0.105456918     0.000000000    -3.590494740     C.2   1  noname   -0.089621
   14   C14        1.058760691     0.000000000    -2.844381850     C.2   1  noname   -0.158569
   15   H15       -0.062865149     0.000000000     4.595823980       H   1  noname    0.115915
   16   H16       -2.274547493     0.000000000     3.441665389       H   1  noname    0.114843
   17   H17       -2.411237348     0.000000000     0.990264164       H   1  noname    0.102630
   18   H18        2.033126763     0.000000000     3.245657167       H   1  noname    0.114814
   19   H19        3.160322643     0.000000000     1.062328478       H   1  noname    0.104182
   20   H20       -2.403962068     0.000000000    -1.077585478       H   1  noname    0.095075
   21   H21       -2.274167406     0.000000000    -3.528589590       H   1  noname    0.112754
   22   H22       -0.058588369     0.000000000    -4.681020203       H   1  noname    0.112503
   23   H23        2.043129626     0.000000000    -3.314948463       H   1  noname    0.113802


@<TRIPOS>BOND
    1      1      2    2
    2      2      3    1
    3      3      4    2
    4      4      5    1
    5      5      6    2
    6      5      7    1
    7      7      8    2
    8      8      9    1
    9      9     10    2
   10     10     11    1
   11     11     12    2
   12     12     13    1
   13     13     14    2
   14      6      1    1
   15     10      4    1
   16     14      9    1
   17      1     15    1
   18      2     16    1
   19      3     17    1
   20      6     18    1
   21      7     19    1
   22     11     20    1
   23     12     21    1
   24     13     22    1
   25     14     23    1
#
#	File Created by: Spartan'20 Export
#

@<TRIPOS>MOLECULE
M0417
16 17
SMALL
MULLIKEN_CHARGES


@<TRIPOS>ATOM
    1   C1         0.590278101     0.000000000    -2.139341506     C.2   1  noname   -0.084933
    2   C2        -0.826417223     0.000000000    -2.097559749     C.2   1  noname   -0.072439
    3   C3        -1.502767517     0.000000000    -0.894633679     C.2   1  noname   -0.146853
    4   C4        -0.777536355     0.000000000     0.323286624     C.2   1  noname    0.092612
    5   C5         0.651832886     0.000000000     0.278502176     C.2   1  noname    0.142005
    6   C6         1.321134694     0.000000000    -0.969571838     C.2   1  noname   -0.164555
    7   C7         1.309160556     0.000000000     1.533954004     C.2   1  noname   -0.097251
    8   N8         0.664434074     0.000000000     2.686351624     N.2   1  noname   -0.141101
    9   C9        -0.697965873     0.000000000     2.603891497     C.2   1  noname    0.039404
   10   N10       -1.444268499     0.000000000     1.515602015     N.2   1  noname   -0.130377
   11   H11        1.098861431     0.000000000    -3.104958262       H   1  noname    0.121461
   12   H12       -1.387741593     0.000000000    -3.034079482       H   1  noname    0.121961
   13   H13       -2.592656175     0.000000000    -0.845133677       H   1  noname    0.120494
   14   H14        2.413756901     0.000000000    -0.991285417       H   1  noname    0.115647
   15   H15        2.405963240     0.000000000     1.572231140       H   1  noname    0.117046
   16   H16       -1.226068648     0.000000000     3.562744530       H   1  noname    0.120936


@<TRIPOS>BOND
    1      1      2    2
    2      2      3    1
    3      3      4    2
    4      4      5    1
    5      5      6    2
    6      5      7    1
    7      7      8    2
    8      8      9    1
    9      9     10    2
   10      6      1    1
   11     10      4    1
   12      1     11    1
   13      2     12    1
   14      3     13    1
   15      6     14    1
   16      7     15    1
   17      9     16    1
#
#	File Created by: Spartan'20 Export
#

@<TRIPOS>MOLECULE
M0418
22 24
SMALL
MULLIKEN_CHARGES


@<TRIPOS>ATOM
    1   C1        -3.571025830     0.000000000    -0.713205320     C.2   1  noname   -0.070285
    2   C2        -3.571581720     0.000000000     0.712546263     C.2   1  noname   -0.070288
    3   C3        -2.392610632     0.000000000     1.416341279     C.2   1  noname   -0.159597
    4   C4        -1.144311664     0.000000000     0.726347193     C.2   1  noname    0.106059
    5   C5        -1.143968143     0.000000000    -0.724119926     C.2   1  noname    0.106587
    6   C6        -2.391376480     0.000000000    -1.415510083     C.2   1  noname   -0.159435
    7   N7         0.000726326     0.000000000    -1.428748085     N.2   1  noname   -0.109778
    8   C8         1.145772126     0.000000000    -0.724406157     C.2   1  noname    0.106204
    9   C9         2.392096562     0.000000000    -1.416246033     C.2   1  noname   -0.159259
   10   C10        3.571449151     0.000000000    -0.713533984     C.2   1  noname   -0.070200
   11   C11        3.571570852     0.000000000     0.712327831     C.2   1  noname   -0.070167
   12   C12        2.392636812     0.000000000     1.416051946     C.2   1  noname   -0.159055
   13   C13        1.145604871     0.000000000     0.725693767     C.2   1  noname    0.106392
   14   N14        0.000577658     0.000000000     1.430525450     N.2   1  noname   -0.109762
   15   H15       -4.523350607     0.000000000    -1.247051190       H   1  noname    0.119583
   16   H16       -4.524813766     0.000000000     1.244628893       H   1  noname    0.119580
   17   H17       -2.369503437     0.000000000     2.507233209       H   1  noname    0.113425
   18   H18       -2.366658983     0.000000000    -2.506570814       H   1  noname    0.113384
   19   H19        2.364758076     0.000000000    -2.507207369       H   1  noname    0.113456
   20   H20        4.523514505     0.000000000    -1.247293626       H   1  noname    0.119602
   21   H21        4.524026993     0.000000000     1.245294577       H   1  noname    0.119583
   22   H22        2.366467328     0.000000000     2.506902177       H   1  noname    0.113415


@<TRIPOS>BOND
    1      1      2    2
    2      2      3    1
    3      3      4    2
    4      4      5    1
    5      5      6    2
    6      5      7    1
    7      7      8    2
    8      8      9    1
    9      9     10    2
   10     10     11    1
   11     11     12    2
   12     12     13    1
   13     13     14    2
   14      6      1    1
   15     14      4    1
   16     13      8    1
   17      1     15    1
   18      2     16    1
   19      3     17    1
   20      6     18    1
   21      9     19    1
   22     10     20    1
   23     11     21    1
   24     12     22    1
#
#	File Created by: Spartan'20 Export
#

@<TRIPOS>MOLECULE
M0419
14 15
SMALL
MULLIKEN_CHARGES


@<TRIPOS>ATOM
    1   C1         0.338677654     0.000000000    -1.905046094     C.2   1  noname   -0.091701
    2   C2        -1.051197309     0.000000000    -1.683373595     C.2   1  noname   -0.084341
    3   C3        -1.573368676     0.000000000    -0.393491389     C.2   1  noname   -0.182303
    4   C4        -0.673886292     0.000000000     0.678290412     C.2   1  noname    0.141531
    5   C5         0.733504804     0.000000000     0.469732207     C.2   1  noname    0.064189
    6   C6         1.234099127     0.000000000    -0.842265553     C.2   1  noname   -0.166709
    7   N7         1.500188907     0.000000000     1.621645752     N.2   1  noname   -0.120492
    8   C8         0.734591759     0.000000000     2.670476698     C.2   1  noname   -0.045612
    9   S9        -0.996119299     0.000000000     2.384678604     S.3   1  noname    0.026279
   10   H10        0.715407290     0.000000000    -2.929311609       H   1  noname    0.115403
   11   H11       -1.732727556     0.000000000    -2.535930716       H   1  noname    0.116106
   12   H12       -2.651388762     0.000000000    -0.228117441       H   1  noname    0.121787
   13   H13        2.312956455     0.000000000    -1.001543908       H   1  noname    0.119875
   14   H14        1.109261899     0.000000000     3.694256631       H   1  noname    0.144281


@<TRIPOS>BOND
    1      1      2    2
    2      2      3    1
    3      3      4    2
    4      4      5    1
    5      5      6    2
    6      5      7    1
    7      7      8    2
    8      8      9    1
    9      6      1    1
   10      9      4    1
   11      1     10    1
   12      2     11    1
   13      3     12    1
   14      6     13    1
   15      8     14    1
#
#	File Created by: Spartan'20 Export
#

@<TRIPOS>MOLECULE
M0420
18 19
SMALL
MULLIKEN_CHARGES


@<TRIPOS>ATOM
    1   C1         2.435329774     0.000000000     0.707773388     C.2   1  noname   -0.093932
    2   C2         2.435231798     0.000000000    -0.707925091     C.2   1  noname   -0.094058
    3   C3         1.244033929     0.000000000    -1.402761994     C.2   1  noname   -0.163704
    4   C4         0.000385091     0.000000000    -0.717706926     C.2   1  noname    0.153155
    5   C5        -1.243573516     0.000000000    -1.402726496     C.2   1  noname   -0.163709
    6   C6        -2.434844231     0.000000000    -0.707951124     C.2   1  noname   -0.094154
    7   C7        -2.435068932     0.000000000     0.707701217     C.2   1  noname   -0.094016
    8   C8        -1.244104762     0.000000000     1.403169313     C.2   1  noname   -0.163789
    9   C9         0.000277464     0.000000000     0.718827151     C.2   1  noname    0.152528
   10   C10        1.244324060     0.000000000     1.403235361     C.2   1  noname   -0.163784
   11   H11        3.383912348     0.000000000     1.247712100       H   1  noname    0.110192
   12   H12        3.383291166     0.000000000    -1.248910016       H   1  noname    0.110196
   13   H13        1.240622228     0.000000000    -2.495685064       H   1  noname    0.107037
   14   H14       -1.241631230     0.000000000    -2.495646917       H   1  noname    0.106999
   15   H15       -3.383327247     0.000000000    -1.248489007       H   1  noname    0.110168
   16   H16       -3.383936116     0.000000000     1.247454133       H   1  noname    0.110168
   17   H17       -1.242680423     0.000000000     2.495944016       H   1  noname    0.107045
   18   H18        1.241758600     0.000000000     2.495985954       H   1  noname    0.107078


@<TRIPOS>BOND
    1      1      2    2
    2      2      3    1
    3      3      4    2
    4      4      5    1
    5      5      6    2
    6      6      7    1
    7      7      8    2
    8      8      9    1
    9      9     10    2
   10     10      1    1
   11      9      4    1
   12      1     11    1
   13      2     12    1
   14      3     13    1
   15      5     14    1
   16      6     15    1
   17      7     16    1
   18      8     17    1
   19     10     18    1
#
#	File Created by: Spartan'20 Export
#

@<TRIPOS>MOLECULE
M0421
17 18
SMALL
MULLIKEN_CHARGES


@<TRIPOS>ATOM
    1   C1         0.643484545     0.000000000    -2.240598511     C.2   1  noname   -0.085285
    2   C2        -0.773131967     0.000000000    -2.236385506     C.2   1  noname   -0.091341
    3   C3        -1.464010815     0.000000000    -1.042541531     C.2   1  noname   -0.154523
    4   C4        -0.762906970     0.000000000     0.189443053     C.2   1  noname    0.176837
    5   C5        -1.419958065     0.000000000     1.450699038     C.2   1  noname   -0.117409
    6   N6        -0.802278208     0.000000000     2.617604245     N.2   1  noname   -0.129059
    7   C7         0.560646625     0.000000000     2.600286811     C.2   1  noname   -0.054724
    8   C8         1.316714906     0.000000000     1.447360191     C.2   1  noname   -0.112161
    9   C9         0.668122573     0.000000000     0.187232365     C.2   1  noname    0.111466
   10   C10        1.351335797     0.000000000    -1.056582358     C.2   1  noname   -0.178745
   11   H11        1.176472059     0.000000000    -3.193370460       H   1  noname    0.116178
   12   H12       -1.314797339     0.000000000    -3.184001629       H   1  noname    0.116466
   13   H13       -2.556825683     0.000000000    -1.031248118       H   1  noname    0.114872
   14   H14       -2.517112491     0.000000000     1.473432381       H   1  noname    0.106973
   15   H15        1.042808424     0.000000000     3.581698122       H   1  noname    0.110613
   16   H16        2.407779310     0.000000000     1.499351074       H   1  noname    0.104297
   17   H17        2.443657299     0.000000000    -1.062379168       H   1  noname    0.113760


@<TRIPOS>BOND
    1      1      2    2
    2      2      3    1
    3      3      4    2
    4      4      5    1
    5      5      6    2
    6      6      7    1
    7      7      8    2
    8      8      9    1
    9      9     10    2
   10     10      1    1
   11      9      4    1
   12      1     11    1
   13      2     12    1
   14      3     13    1
   15      5     14    1
   16      7     15    1
   17      8     16    1
   18     10     17    1
#
#	File Created by: Spartan'20 Export
#

@<TRIPOS>MOLECULE
M0422
16 17
SMALL
MULLIKEN_CHARGES


@<TRIPOS>ATOM
    1   C1         0.708099651     0.000000000    -2.021058016     C.2   1  noname   -0.084294
    2   C2        -0.708085230     0.000000000    -2.020882144     C.2   1  noname   -0.084403
    3   C3        -1.410892545     0.000000000    -0.832145302     C.2   1  noname   -0.151855
    4   C4        -0.710278721     0.000000000     0.397605277     C.2   1  noname    0.151548
    5   C5        -1.330222900     0.000000000     1.676648044     C.2   1  noname   -0.147655
    6   N6        -0.683468055     0.000000000     2.826290834     N.2   1  noname   -0.048396
    7   N7         0.682952602     0.000000000     2.826297749     N.2   1  noname   -0.048460
    8   C8         1.330268701     0.000000000     1.676903533     C.2   1  noname   -0.147581
    9   C9         0.711086158     0.000000000     0.397486843     C.2   1  noname    0.151184
   10   C10        1.411298130     0.000000000    -0.832532289     C.2   1  noname   -0.151940
   11   H11        1.243492502     0.000000000    -2.972234918       H   1  noname    0.123544
   12   H12       -1.244248019     0.000000000    -2.971703095       H   1  noname    0.123537
   13   H13       -2.503421815     0.000000000    -0.828182709       H   1  noname    0.122839
   14   H14       -2.423489061     0.000000000     1.752563986       H   1  noname    0.108491
   15   H15        2.423267479     0.000000000     1.753742630       H   1  noname    0.108516
   16   H16        2.503641124     0.000000000    -0.828800424       H   1  noname    0.122875


@<TRIPOS>BOND
    1      1      2    2
    2      2      3    1
    3      3      4    2
    4      4      5    1
    5      5      6    2
    6      6      7    1
    7      7      8    2
    8      8      9    1
    9      9     10    2
   10     10      1    1
   11      9      4    1
   12      1     11    1
   13      2     12    1
   14      3     13    1
   15      5     14    1
   16      8     15    1
   17     10     16    1
#
#	File Created by: Spartan'20 Export
#

@<TRIPOS>MOLECULE
M0423
14 14
SMALL
MULLIKEN_CHARGES


@<TRIPOS>ATOM
    1   C1         0.684706784     0.000000000    -1.490870155     C.2   1  noname   -0.080715
    2   C2        -0.684572157     0.000000000    -1.490799178     C.2   1  noname   -0.080743
    3   C3        -1.565206140     0.000000000    -0.364862463     C.2   1  noname   -0.038332
    4   C4        -1.283021238     0.000000000     0.971576514     C.2   1  noname   -0.153512
    5   C5        -0.000022068     0.000000000     1.689762351     C.2   1  noname    0.226029
    6   O6         0.000020903     0.000000000     2.931299421     O.2   1  noname   -0.294457
    7   C7         1.282974876     0.000000000     0.971472885     C.2   1  noname   -0.153521
    8   C8         1.565315875     0.000000000    -0.364945106     C.2   1  noname   -0.038304
    9   H9         1.173696898     0.000000000    -2.468722390       H   1  noname    0.121662
   10   H10       -1.173779385     0.000000000    -2.468565547       H   1  noname    0.121657
   11   H11       -2.629368453     0.000000000    -0.621546338       H   1  noname    0.122938
   12   H12       -2.130241670     0.000000000     1.663857477       H   1  noname    0.118273
   13   H13        2.130036064     0.000000000     1.663907855       H   1  noname    0.118268
   14   H14        2.629459712     0.000000000    -0.621565326       H   1  noname    0.122944


@<TRIPOS>BOND
    1      1      2    2
    2      2      3    1
    3      3      4    2
    4      4      5    1
    5      5      6    2
    6      5      7    1
    7      7      8    2
    8      8      1    1
    9      1      9    1
   10      2     10    1
   11      3     11    1
   12      4     12    1
   13      7     13    1
   14      8     14    1
#
#	File Created by: Spartan'20 Export
#

@<TRIPOS>MOLECULE
M0424
12 12
SMALL
MULLIKEN_CHARGES


@<TRIPOS>ATOM
    1   C1        -1.210062116     0.000000000     0.698680822     C.2   1  noname   -0.090309
    2   C2        -1.210046468     0.000000000    -0.698552831     C.2   1  noname   -0.090346
    3   C3         0.000051550     0.000000000    -1.396913909     C.2   1  noname   -0.089865
    4   C4         1.210209508     0.000000000    -0.698586028     C.2   1  noname   -0.090348
    5   C5         1.210205595     0.000000000     0.698678020     C.2   1  noname   -0.090312
    6   C6         0.000046606     0.000000000     1.397082304     C.2   1  noname   -0.089903
    7   H7        -2.155687147     0.000000000     1.244679009       H   1  noname    0.103352
    8   H8        -2.155505576     0.000000000    -1.244915372       H   1  noname    0.103354
    9   H9        -0.000199256     0.000000000    -2.488921332       H   1  noname    0.103614
   10   H10        2.155522093     0.000000000    -1.245086667       H   1  noname    0.103357
   11   H11        2.155673165     0.000000000     1.244833336       H   1  noname    0.103352
   12   H12       -0.000207952     0.000000000     2.489022648       H   1  noname    0.103620


@<TRIPOS>BOND
    1      1      2    2
    2      2      3    1
    3      3      4    2
    4      4      5    1
    5      5      6    2
    6      6      1    1
    7      1      7    1
    8      2      8    1
    9      3      9    1
   10      4     10    1
   11      5     11    1
   12      6     12    1
#
#	File Created by: Spartan'20 Export
#

@<TRIPOS>MOLECULE
M0425
12 12
SMALL
MULLIKEN_CHARGES


@<TRIPOS>ATOM
    1   C1         0.000062455     0.000000000    -1.448474100     C.2   1  noname   -0.125950
    2   C2        -1.195008289     0.000000000    -0.725374634     C.2   1  noname   -0.055567
    3   C3        -1.183417829     0.000000000     0.657847555     C.2   1  noname   -0.103902
    4   N4         0.000032816     0.000000000     1.367472912       N   1  noname    0.318855
    5   O5        -0.000095350     0.000000000     2.640516767       O   1  noname   -0.420210
    6   C6         1.183603081     0.000000000     0.657835344     C.2   1  noname   -0.103915
    7   C7         1.195196100     0.000000000    -0.725428971     C.2   1  noname   -0.055572
    8   H8        -0.000270955     0.000000000    -2.537521802       H   1  noname    0.122003
    9   H9        -2.160068124     0.000000000    -1.234025150       H   1  noname    0.123385
   10   H10       -2.068276110     0.000000000     1.290528866       H   1  noname    0.138274
   11   H11        2.068138960     0.000000000     1.290839695       H   1  noname    0.138278
   12   H12        2.160103244     0.000000000    -1.234216481       H   1  noname    0.123392


@<TRIPOS>BOND
    1      1      2    2
    2      2      3    1
    3      3      4    2
    4      4      5    1
    5      4      6    1
    6      6      7    2
    7      7      1    1
    8      1      8    1
    9      2      9    1
   10      3     10    1
   11      6     11    1
   12      7     12    1
#
#	File Created by: Spartan'20 Export
#

@<TRIPOS>MOLECULE
M0426
11 11
SMALL
MULLIKEN_CHARGES


@<TRIPOS>ATOM
    1   C1         0.979973038     0.000000000     0.742602891     C.2   1  noname   -0.078539
    2   C2        -0.284206480     0.000000000     1.338745280     C.2   1  noname   -0.070540
    3   C3        -1.404086118     0.000000000     0.509095854     C.2   1  noname   -0.049509
    4   N4        -1.327656677     0.000000000    -0.832768157     N.2   1  noname   -0.117699
    5   C5        -0.121224601     0.000000000    -1.369086625     C.2   1  noname    0.156211
    6   C6         1.077652673     0.000000000    -0.646807495     C.2   1  noname   -0.156994
    7   Br7       -0.028911822     0.000000000    -3.285713394      Br   1  noname   -0.074966
    8   H8         1.884937431     0.000000000     1.352814910       H   1  noname    0.123827
    9   H9        -0.400993840     0.000000000     2.422750374       H   1  noname    0.120253
   10   H10       -2.415164173     0.000000000     0.926061386       H   1  noname    0.122228
   11   H11        2.039680569     0.000000000    -1.157695024       H   1  noname    0.129110


@<TRIPOS>BOND
    1      1      2    2
    2      2      3    1
    3      3      4    2
    4      4      5    1
    5      5      6    2
    6      5      7    1
    7      6      1    1
    8      1      8    1
    9      2      9    1
   10      3     10    1
   11      6     11    1
#
#	File Created by: Spartan'20 Export
#

@<TRIPOS>MOLECULE
M0427
12 12
SMALL
MULLIKEN_CHARGES


@<TRIPOS>ATOM
    1   C1         1.002518075     0.000000000    -1.020964076     C.2   1  noname   -0.078033
    2   C2        -0.250289637     0.000000000    -1.633594859     C.2   1  noname   -0.047612
    3   C3        -1.391369017     0.000000000    -0.824073675     C.2   1  noname   -0.064895
    4   N4        -1.356547840     0.000000000     0.512155897     N.2   1  noname   -0.139802
    5   C5        -0.138112634     0.000000000     1.088029324     C.2   1  noname    0.279324
    6   C6         1.068179183     0.000000000     0.370324254     C.2   1  noname   -0.144856
    7   C7        -0.102181151     0.000000000     2.527676005     C.1   1  noname   -0.282596
    8   N8        -0.032061708     0.000000000     3.690214038     N.1   1  noname    0.086484
    9   H9         1.916768418     0.000000000    -1.616607544       H   1  noname    0.130234
   10   H10       -0.348948047     0.000000000    -2.720024762       H   1  noname    0.125843
   11   H11       -2.389315722     0.000000000    -1.272699771       H   1  noname    0.123471
   12   H12        2.021360080     0.000000000     0.899565169       H   1  noname    0.134544


@<TRIPOS>BOND
    1      1      2    2
    2      2      3    1
    3      3      4    2
    4      4      5    1
    5      5      6    2
    6      5      7    1
    7      7      8    3
    8      6      1    1
    9      1      9    1
   10      2     10    1
   11      3     11    1
   12      6     12    1
#
#	File Created by: Spartan'20 Export
#

@<TRIPOS>MOLECULE
M0428
11 11
SMALL
MULLIKEN_CHARGES


@<TRIPOS>ATOM
    1   C1         0.967859886     0.000000000     0.746007961     C.2   1  noname   -0.084466
    2   C2        -0.307077548     0.000000000     1.318814319     C.2   1  noname   -0.069889
    3   C3        -1.411052226     0.000000000     0.467571907     C.2   1  noname   -0.051826
    4   N4        -1.313121240     0.000000000    -0.871884724     N.2   1  noname   -0.109662
    5   C5        -0.094689814     0.000000000    -1.387282025     C.2   1  noname    0.158439
    6   C6         1.089431916     0.000000000    -0.640653197     C.2   1  noname   -0.145233
    7   Cl7        0.021027044     0.000000000    -3.135968096      Cl   1  noname   -0.083345
    8   H8         1.861957836     0.000000000     1.371992983       H   1  noname    0.122753
    9   H9        -0.444508980     0.000000000     2.400431085       H   1  noname    0.119531
   10   H10       -2.429078036     0.000000000     0.867648911       H   1  noname    0.121683
   11   H11        2.059251162     0.000000000    -1.136679124       H   1  noname    0.124587


@<TRIPOS>BOND
    1      1      2    2
    2      2      3    1
    3      3      4    2
    4      4      5    1
    5      5      6    2
    6      5      7    1
    7      6      1    1
    8      1      8    1
    9      2      9    1
   10      3     10    1
   11      6     11    1
#
#	File Created by: Spartan'20 Export
#

@<TRIPOS>MOLECULE
M0429
11 11
SMALL
MULLIKEN_CHARGES


@<TRIPOS>ATOM
    1   C1         0.980927205     0.000000000    -0.695624727     C.2   1  noname   -0.081548
    2   C2        -0.289415129     0.000000000    -1.283982259     C.2   1  noname   -0.080613
    3   C3        -1.403290672     0.000000000    -0.447165789     C.2   1  noname   -0.044070
    4   N4        -1.320475262     0.000000000     0.895109674     N.2   1  noname   -0.107444
    5   C5        -0.109558417     0.000000000     1.410694786     C.2   1  noname    0.226750
    6   C6         1.087581825     0.000000000     0.692663761     C.2   1  noname   -0.160847
    7   F7        -0.043720766     0.000000000     2.759946493       F   1  noname   -0.132044
    8   H8         1.881188265     0.000000000    -1.313273803       H   1  noname    0.124382
    9   H9        -0.413849410     0.000000000    -2.367233119       H   1  noname    0.118222
   10   H10       -2.415714105     0.000000000    -0.861591276       H   1  noname    0.119293
   11   H11        2.046326465     0.000000000     1.210456260       H   1  noname    0.127323


@<TRIPOS>BOND
    1      1      2    2
    2      2      3    1
    3      3      4    2
    4      4      5    1
    5      5      6    2
    6      5      7    1
    7      6      1    1
    8      1      8    1
    9      2      9    1
   10      3     10    1
   11      6     11    1
#
#	File Created by: Spartan'20 Export
#

@<TRIPOS>MOLECULE
M0430
13 13
SMALL
MULLIKEN_CHARGES


@<TRIPOS>ATOM
    1   C1        -1.159677353     1.046212154    -0.045724285     C.2   1  noname   -0.098599
    2   C2        -1.808905938    -0.193241900    -0.099420272     C.2   1  noname   -0.094469
    3   C3        -1.017172574    -1.338633552    -0.048578062     C.2   1  noname   -0.064871
    4   N4         0.319243459    -1.326245888     0.043335119     N.2   1  noname   -0.189883
    5   C5         0.932154479    -0.130097959     0.100121542     C.2   1  noname    0.231518
    6   C6         0.222601272     1.090502952     0.059041661     C.2   1  noname   -0.165017
    7   N7         2.305006959    -0.160146457     0.252018059     N.3   1  noname   -0.388565
    8   H8        -1.733183581     1.974641402    -0.083748414       H   1  noname    0.108274
    9   H9        -2.893200428    -0.268393433    -0.181257071       H   1  noname    0.105475
   10   H10       -1.476839242    -2.331667451    -0.088585143       H   1  noname    0.105138
   11   H11        0.753272194     2.043169845     0.114484031       H   1  noname    0.098979
   12   H12        2.728000368    -1.057577377     0.033908871       H   1  noname    0.230354
   13   H13        2.828700382     0.651477664    -0.055596037       H   1  noname    0.225360


@<TRIPOS>BOND
    1      1      2    2
    2      2      3    1
    3      3      4    2
    4      4      5    1
    5      5      6    2
    6      5      7    1
    7      6      1    1
    8      1      8    1
    9      2      9    1
   10      3     10    1
   11      6     11    1
   12      7     12    1
   13      7     13    1
#
#	File Created by: Spartan'20 Export
#

@<TRIPOS>MOLECULE
M0431
20 21
SMALL
MULLIKEN_CHARGES


@<TRIPOS>ATOM
    1   C1         1.179148791     0.000000000     2.845670806     C.2   1  noname   -0.057093
    2   C2        -0.059334336     0.000000000     3.490058640     C.2   1  noname   -0.070042
    3   C3        -1.211543132     0.000000000     2.700150291     C.2   1  noname   -0.073678
    4   N4        -1.194003959     0.000000000     1.363609822     N.2   1  noname   -0.153792
    5   C5         0.004465838     0.000000000     0.745341854     C.2   1  noname    0.178565
    6   C6         1.216044849     0.000000000     1.454998846     C.2   1  noname   -0.186134
    7   C7        -0.004300263     0.000000000    -0.743848124     C.2   1  noname    0.179547
    8   C8        -1.215695014     0.000000000    -1.454601386     C.2   1  noname   -0.186710
    9   C9        -1.178629592     0.000000000    -2.845422302     C.2   1  noname   -0.056858
   10   C10        0.059642544     0.000000000    -3.489890282     C.2   1  noname   -0.070101
   11   C11        1.211651655     0.000000000    -2.699655888     C.2   1  noname   -0.073741
   12   N12        1.193976657     0.000000000    -1.362986160     N.2   1  noname   -0.154044
   13   H13        2.106485834     0.000000000     3.421780673       H   1  noname    0.115144
   14   H14       -0.136737076     0.000000000     4.578229785       H   1  noname    0.112181
   15   H15       -2.202640675     0.000000000     3.165528548       H   1  noname    0.105636
   16   H16        2.153262842     0.000000000     0.899491719       H   1  noname    0.119928
   17   H17       -2.154573240     0.000000000    -0.901928181       H   1  noname    0.119768
   18   H18       -2.105875676     0.000000000    -3.422126053       H   1  noname    0.115120
   19   H19        0.136440079     0.000000000    -4.578254279       H   1  noname    0.112200
   20   H20        2.202213872     0.000000000    -3.166148330       H   1  noname    0.105595


@<TRIPOS>BOND
    1      1      2    2
    2      2      3    1
    3      3      4    2
    4      4      5    1
    5      5      6    2
    6      5      7    1
    7      7      8    2
    8      8      9    1
    9      9     10    2
   10     10     11    1
   11     11     12    2
   12      6      1    1
   13     12      7    1
   14      1     13    1
   15      2     14    1
   16      3     15    1
   17      6     16    1
   18      8     17    1
   19      9     18    1
   20     10     19    1
   21     11     20    1
#
#	File Created by: Spartan'20 Export
#

@<TRIPOS>MOLECULE
M0432
11 11
SMALL
MULLIKEN_CHARGES


@<TRIPOS>ATOM
    1   C1         0.000052139     0.000000000     1.196195832     C.2   1  noname   -0.111455
    2   C2         1.199190810     0.000000000     0.483302698     C.2   1  noname   -0.058146
    3   C3         1.144014477     0.000000000    -0.912742768     C.2   1  noname   -0.058724
    4   N4         0.000060283     0.000000000    -1.613364797     N.2   1  noname   -0.137506
    5   C5        -1.143798227     0.000000000    -0.912731365     C.2   1  noname   -0.058748
    6   C6        -1.199032300     0.000000000     0.483293904     C.2   1  noname   -0.058138
    7   H7        -0.000314558     0.000000000     2.288100309       H   1  noname    0.116962
    8   H8         2.162665912     0.000000000     0.995898139       H   1  noname    0.112111
    9   H9         2.066707246     0.000000000    -1.502076581       H   1  noname    0.112919
   10   H10       -2.066879063     0.000000000    -1.501659677       H   1  noname    0.112881
   11   H11       -2.162666719     0.000000000     0.995784303       H   1  noname    0.112108


@<TRIPOS>BOND
    1      1      2    2
    2      2      3    1
    3      3      4    2
    4      4      5    1
    5      5      6    2
    6      6      1    1
    7      1      7    1
    8      2      8    1
    9      3      9    1
   10      5     10    1
   11      6     11    1
#
#	File Created by: Spartan'20 Export
#

@<TRIPOS>MOLECULE
M0433
10 10
SMALL
MULLIKEN_CHARGES


@<TRIPOS>ATOM
    1   C1         0.693087877     0.000000000     0.814908087     C.2   1  noname   -0.058609
    2   C2        -0.692950874     0.000000000     0.814910557     C.2   1  noname   -0.058598
    3   C3        -1.323778529     0.000000000    -0.432711616     C.2   1  noname   -0.076884
    4   N4        -0.668471377     0.000000000    -1.602375931     N.2   1  noname   -0.062755
    5   N5         0.668470146     0.000000000    -1.602390407     N.2   1  noname   -0.062748
    6   C6         1.323886907     0.000000000    -0.432759693     C.2   1  noname   -0.076880
    7   H7         1.274492856     0.000000000     1.738450820       H   1  noname    0.122258
    8   H8        -1.274744449     0.000000000     1.738263620       H   1  noname    0.122257
    9   H9        -2.413725489     0.000000000    -0.518036100       H   1  noname    0.118038
   10   H10        2.413732932     0.000000000    -0.518259337       H   1  noname    0.118049


@<TRIPOS>BOND
    1      1      2    2
    2      2      3    1
    3      3      4    2
    4      4      5    1
    5      5      6    2
    6      6      1    1
    7      1      7    1
    8      2      8    1
    9      3      9    1
   10      6     10    1
#
#	File Created by: Spartan'20 Export
#

@<TRIPOS>MOLECULE
M0434
9 9
SMALL
MULLIKEN_CHARGES


@<TRIPOS>ATOM
    1   C1         0.716857186     0.000000000     0.738926761     C.2   1  noname   -0.138336
    2   C2        -0.716339998     0.000000000     0.738944905     C.2   1  noname   -0.137965
    3   C3        -1.096908129     0.000000000    -0.571397981     C.2   1  noname    0.000686
    4   O4         0.000198227     0.000000000    -1.388979305     O.3   1  noname   -0.136613
    5   C5         1.097787695     0.000000000    -0.571431565     C.2   1  noname    0.000713
    6   H6         1.373292198     0.000000000     1.603919290       H   1  noname    0.116676
    7   H7        -1.374522905     0.000000000     1.602933552       H   1  noname    0.116706
    8   H8        -2.057628965     0.000000000    -1.075659051       H   1  noname    0.130514
    9   H9         2.057264691     0.000000000    -1.077256604       H   1  noname    0.130568


@<TRIPOS>BOND
    1      1      2    1
    2      2      3    2
    3      3      4    1
    4      4      5    1
    5      5      1    2
    6      1      6    1
    7      2      7    1
    8      3      8    1
    9      5      9    1
#
#	File Created by: Spartan'20 Export
#

@<TRIPOS>MOLECULE
M0435
9 9
SMALL
MULLIKEN_CHARGES


@<TRIPOS>ATOM
    1   C1         0.711289783     0.000000000    -0.703868641     C.2   1  noname   -0.125468
    2   C2        -0.710995143     0.000000000    -0.703836627     C.2   1  noname   -0.125333
    3   C3        -1.238591245     0.000000000     0.566032824     C.2   1  noname   -0.114977
    4   S4        -0.000040117     0.000000000     1.758878202     S.3   1  noname    0.075268
    5   C5         1.238676970     0.000000000     0.566062254     C.2   1  noname   -0.114916
    6   H6         1.323449062     0.000000000    -1.605177523       H   1  noname    0.112699
    7   H7        -1.323689096     0.000000000    -1.604849022       H   1  noname    0.112677
    8   H8        -2.283718034     0.000000000     0.863271536       H   1  noname    0.136880
    9   H9         2.283617819     0.000000000     0.863486997       H   1  noname    0.136876


@<TRIPOS>BOND
    1      1      2    1
    2      2      3    2
    3      3      4    1
    4      4      5    1
    5      5      1    2
    6      1      6    1
    7      2      7    1
    8      3      8    1
    9      5      9    1
#
#	File Created by: Spartan'20 Export
#

@<TRIPOS>MOLECULE
M0436
12 12
SMALL
MULLIKEN_CHARGES


@<TRIPOS>ATOM
    1   C1        -1.200543226     0.000000000     0.670596354     C.2   1  noname   -0.096470
    2   C2        -1.181442300     0.000000000    -0.711156621     C.2   1  noname   -0.098715
    3   N3         0.000040976     0.000000000    -1.423633580       N   1  noname    0.320349
    4   O4        -0.000268976     0.000000000    -2.696852049       O   1  noname   -0.417784
    5   C5         1.181822630     0.000000000    -0.711374128     C.2   1  noname   -0.098628
    6   C6         1.201179728     0.000000000     0.670499668     C.2   1  noname   -0.096614
    7   C7         0.000249537     0.000000000     1.383485309     C.2   1  noname    0.134173
    8   Cl8       -0.001399889     0.000000000     3.116881143      Cl   1  noname   -0.081678
    9   H9        -2.158793213     0.000000000     1.189104239       H   1  noname    0.134610
   10   H10       -2.070416658     0.000000000    -1.337863052       H   1  noname    0.141447
   11   H11        2.070248027     0.000000000    -1.338696715       H   1  noname    0.141464
   12   H12        2.159323363     0.000000000     1.189009433       H   1  noname    0.134630


@<TRIPOS>BOND
    1      1      2    2
    2      2      3    1
    3      3      4    1
    4      3      5    2
    5      5      6    1
    6      6      7    2
    7      7      8    1
    8      7      1    1
    9      1      9    1
   10      2     10    1
   11      5     11    1
   12      6     12    1
#
#	File Created by: Spartan'20 Export
#

@<TRIPOS>MOLECULE
M0437
14 14
SMALL
MULLIKEN_CHARGES


@<TRIPOS>ATOM
    1   C1        -1.206770060     0.000000000     0.200219881     C.2   1  noname   -0.092829
    2   C2        -1.189609466     0.000000000    -1.176733953     C.2   1  noname   -0.084483
    3   N3        -0.000003144     0.000000000    -1.884792919       N   1  noname    0.327557
    4   O4        -0.000381219     0.000000000    -3.150256685       O   1  noname   -0.374497
    5   C5         1.190016571     0.000000000    -1.177126662     C.2   1  noname   -0.084350
    6   C6         1.207638316     0.000000000     0.199932039     C.2   1  noname   -0.093202
    7   C7         0.000435828     0.000000000     0.901492324     C.2   1  noname    0.043838
    8   N8        -0.000399865     0.000000000     2.365068884       N   1  noname    0.403207
    9   O9        -1.097358539     0.000000000     2.932974232       O   1  noname   -0.265001
   10   O10        1.095888083     0.000000000     2.934134177     O.2   1  noname   -0.264983
   11   H11       -2.153739654     0.000000000     0.738005409       H   1  noname    0.163787
   12   H12       -2.074057567     0.000000000    -1.809668249       H   1  noname    0.151533
   13   H13        2.073774133     0.000000000    -1.810859117       H   1  noname    0.151549
   14   H14        2.154566583     0.000000000     0.737610638       H   1  noname    0.163725


@<TRIPOS>BOND
    1      1      2    2
    2      2      3    1
    3      3      4    1
    4      3      5    2
    5      5      6    1
    6      6      7    2
    7      7      8    1
    8      8      9    1
    9      8     10    2
   10      7      1    1
   11      1     11    1
   12      2     12    1
   13      5     13    1
   14      6     14    1
#
#	File Created by: Spartan'20 Export
#

@<TRIPOS>MOLECULE
M0438
12 12
SMALL
MULLIKEN_CHARGES


@<TRIPOS>ATOM
    1   C1        -0.068029106     0.000070668    -1.730550571     C.2   1  noname   -0.108968
    2   C2        -0.042802809    -1.183344802    -0.991095449     C.2   1  noname   -0.044340
    3   N3        -0.007989394    -1.208797830     0.343009716     N.2   1  noname   -0.198390
    4   C4        -0.003044330     0.000611003     0.949172598     C.2   1  noname    0.246765
    5   N5        -0.008167691     1.209802308     0.342639138     N.2   1  noname   -0.198274
    6   C6        -0.042961989     1.183850517    -0.991617801     C.2   1  noname   -0.044266
    7   N7        -0.015167276    -0.000151258     2.312974268     N.3   1  noname   -0.360676
    8   H8        -0.096343120    -0.000618273    -2.819330206       H   1  noname    0.111693
    9   H9        -0.046607021    -2.158870031    -1.489265049       H   1  noname    0.114898
   10   H10       -0.046925417     2.158872326    -1.490465400       H   1  noname    0.114924
   11   H11        0.188748090    -0.874014295     2.781397278       H   1  noname    0.238793
   12   H12        0.189290062     0.872589668     2.783131478       H   1  noname    0.238729


@<TRIPOS>BOND
    1      1      2    2
    2      2      3    1
    3      3      4    2
    4      4      5    1
    5      5      6    2
    6      4      7    1
    7      6      1    1
    8      1      8    1
    9      2      9    1
   10      6     10    1
   11      7     11    1
   12      7     12    1
#
#	File Created by: Spartan'20 Export
#

@<TRIPOS>MOLECULE
M0439
9 9
SMALL
MULLIKEN_CHARGES


@<TRIPOS>ATOM
    1   C1         0.915846646     0.000000000     0.421394842     C.2   1  noname   -0.076712
    2   C2         0.797291307     0.000000000    -0.950957719     C.2   1  noname   -0.098162
    3   N3        -0.528149509     0.000000000    -1.326634676     N.2   1  noname   -0.204184
    4   C4        -1.210564650     0.000000000    -0.196565983     C.2   1  noname    0.017105
    5   N5        -0.381329323     0.000000000     0.892080342   N.pl3   1  noname   -0.150381
    6   H6         1.770644337     0.000000000     1.088857292       H   1  noname    0.129114
    7   H7         1.593931249     0.000000000    -1.689522780       H   1  noname    0.116389
    8   H8        -2.294108173     0.000000000    -0.104738457       H   1  noname    0.131120
    9   H9        -0.663561884     0.000000000     1.866087138       H   1  noname    0.219466


@<TRIPOS>BOND
    1      1      2    2
    2      2      3    1
    3      3      4    2
    4      4      5    1
    5      5      1    1
    6      1      6    1
    7      2      7    1
    8      4      8    1
    9      5      9    1
#
#	File Created by: Spartan'20 Export
#

@<TRIPOS>MOLECULE
M0440
12 12
SMALL
MULLIKEN_CHARGES


@<TRIPOS>ATOM
    1   C1        -1.206154094     0.000000000     0.135471464     C.2   1  noname   -0.111728
    2   C2        -1.144833914     0.000000000    -1.257468581     C.2   1  noname   -0.049090
    3   N3        -0.000072245     0.000000000    -1.956246410     N.2   1  noname   -0.122175
    4   C4         1.145197578     0.000000000    -1.258131923     C.2   1  noname   -0.048952
    5   C5         1.207296778     0.000000000     0.134845404     C.2   1  noname   -0.112030
    6   C6         0.000701307     0.000000000     0.851575374     C.2   1  noname    0.231185
    7   C7        -0.000330156     0.000000000     2.281498001     C.1   1  noname   -0.278146
    8   N8        -0.002626556     0.000000000     3.446786300     N.1   1  noname    0.089321
    9   H9        -2.163394079     0.000000000     0.656996511       H   1  noname    0.136164
   10   H10       -2.067928564     0.000000000    -1.844708694       H   1  noname    0.125447
   11   H11        2.067447460     0.000000000    -1.846461866       H   1  noname    0.125495
   12   H12        2.164696485     0.000000000     0.655844419       H   1  noname    0.136138


@<TRIPOS>BOND
    1      1      2    2
    2      2      3    1
    3      3      4    2
    4      4      5    1
    5      5      6    2
    6      6      7    1
    7      7      8    3
    8      6      1    1
    9      1      9    1
   10      2     10    1
   11      4     11    1
   12      5     12    1
#
#	File Created by: Spartan'20 Export
#

@<TRIPOS>MOLECULE
M0441
11 11
SMALL
MULLIKEN_CHARGES


@<TRIPOS>ATOM
    1   C1        -1.204449939     0.000000000    -0.423153021     C.2   1  noname   -0.100735
    2   C2        -1.141251732     0.000000000     0.972080520     C.2   1  noname   -0.052397
    3   N3         0.000067739     0.000000000     1.675299168     N.2   1  noname   -0.135354
    4   C4         1.141595971     0.000000000     0.972195811     C.2   1  noname   -0.052270
    5   C5         1.205064164     0.000000000    -0.423161250     C.2   1  noname   -0.100934
    6   C6         0.000219159     0.000000000    -1.124509663     C.2   1  noname    0.141176
    7   Cl7       -0.001458272     0.000000000    -2.863749427      Cl   1  noname   -0.083005
    8   H8        -2.160226361     0.000000000    -0.946797964       H   1  noname    0.124947
    9   H9        -2.068440900     0.000000000     1.553637546       H   1  noname    0.117667
   10   H10        2.068029612     0.000000000     1.554685335       H   1  noname    0.117733
   11   H11        2.160850559     0.000000000    -0.946527056       H   1  noname    0.124971


@<TRIPOS>BOND
    1      1      2    2
    2      2      3    1
    3      3      4    2
    4      4      5    1
    5      5      6    2
    6      6      7    1
    7      6      1    1
    8      1      8    1
    9      2      9    1
   10      4     10    1
   11      5     11    1
#
#	File Created by: Spartan'20 Export
#

@<TRIPOS>MOLECULE
M0442
13 13
SMALL
MULLIKEN_CHARGES


@<TRIPOS>ATOM
    1   C1        -0.031557682     1.198939484    -0.017529298     C.2   1  noname   -0.143730
    2   C2        -0.033250869     1.137524283    -1.407909391     C.2   1  noname   -0.065230
    3   N3        -0.034109106     0.000008650    -2.122532303     N.2   1  noname   -0.154958
    4   C4        -0.033152589    -1.137192211    -1.407575564     C.2   1  noname   -0.065375
    5   C5        -0.031470467    -1.198141593    -0.017280970     C.2   1  noname   -0.143503
    6   C6        -0.031569935     0.000392585     0.719717830     C.2   1  noname    0.217090
    7   N7        -0.084871548    -0.000306747     2.099716925     N.3   1  noname   -0.391357
    8   H8        -0.032155340     2.165841624     0.491439087       H   1  noname    0.090534
    9   H9        -0.031505043     2.066838279    -1.987189655       H   1  noname    0.103641
   10   H10       -0.031269706    -2.067279546    -1.985887073       H   1  noname    0.103578
   11   H11       -0.031922072    -2.164993894     0.492061586       H   1  noname    0.090449
   12   H12        0.203871065     0.849742284     2.572073341       H   1  noname    0.230299
   13   H13        0.202963290    -0.851373197     2.570895484       H   1  noname    0.230315


@<TRIPOS>BOND
    1      1      2    2
    2      2      3    1
    3      3      4    2
    4      4      5    1
    5      5      6    2
    6      6      7    1
    7      6      1    1
    8      1      8    1
    9      2      9    1
   10      4     10    1
   11      5     11    1
   12      7     12    1
   13      7     13    1
#
#	File Created by: Spartan'20 Export
#

@<TRIPOS>MOLECULE
M0443
23 24
SMALL
MULLIKEN_CHARGES


@<TRIPOS>ATOM
    1   C1         1.197453846     0.091553432     1.726181719     C.2   1  noname   -0.170281
    2   C2         1.132147554     0.087097780     3.115017330     C.2   1  noname   -0.076014
    3   N3         0.000432515    -0.000581204     3.833870615     N.2   1  noname   -0.153498
    4   C4        -1.131170712    -0.087776468     3.114990967     C.2   1  noname   -0.076051
    5   C5        -1.196529608    -0.091372954     1.726261652     C.2   1  noname   -0.169994
    6   C6         0.000269350     0.000272631     0.976581201     C.2   1  noname    0.137751
    7   N7        -0.000606560     0.000600808    -0.389074815   N.pl3   1  noname    0.080089
    8   C8        -1.215163343     0.015950872    -1.203741593     C.3   1  noname   -0.178822
    9   C9        -0.696610845     0.318165822    -2.614377570     C.3   1  noname   -0.153463
   10   C10        0.696676494    -0.318514084    -2.613767701     C.3   1  noname   -0.153356
   11   C11        1.214056157    -0.015382125    -1.203139458     C.3   1  noname   -0.178650
   12   H12        2.165857947     0.178881713     1.233567631       H   1  noname    0.099734
   13   H13        2.060355942     0.163623273     3.691617061       H   1  noname    0.098428
   14   H14       -2.060052538    -0.164403091     3.690866572       H   1  noname    0.098356
   15   H15       -2.165213625    -0.178079669     1.233705907       H   1  noname    0.099640
   16   H16       -1.734367712    -0.961520367    -1.164479533       H   1  noname    0.101823
   17   H17       -1.922959262     0.780293995    -0.843959100       H   1  noname    0.116420
   18   H18       -0.615677979     1.407143294    -2.756071728       H   1  noname    0.097275
   19   H19       -1.358035995    -0.076211855    -3.397168801       H   1  noname    0.112109
   20   H20        1.358950954     0.075353293    -3.396118692       H   1  noname    0.112089
   21   H21        0.616024126    -1.407594689    -2.754786445       H   1  noname    0.097252
   22   H22        1.921147670    -0.779667981    -0.842054712       H   1  noname    0.116357
   23   H23        1.733015624     0.962167574    -1.163920509       H   1  noname    0.101777


@<TRIPOS>BOND
    1      1      2    2
    2      2      3    1
    3      3      4    2
    4      4      5    1
    5      5      6    2
    6      6      7    1
    7      7      8    1
    8      8      9    1
    9      9     10    1
   10     10     11    1
   11      6      1    1
   12     11      7    1
   13      1     12    1
   14      2     13    1
   15      4     14    1
   16      5     15    1
   17      8     16    1
   18      8     17    1
   19      9     18    1
   20      9     19    1
   21     10     20    1
   22     10     21    1
   23     11     22    1
   24     11     23    1
#
#	File Created by: Spartan'20 Export
#

@<TRIPOS>MOLECULE
M0444
26 27
SMALL
MULLIKEN_CHARGES


@<TRIPOS>ATOM
    1   C1         1.168979214    -0.266054430     2.083511044     C.2   1  noname   -0.170444
    2   C2         1.106937766    -0.246232743     3.472667294     C.2   1  noname   -0.079170
    3   N3         0.001472604     0.004074157     4.193872511     N.2   1  noname   -0.154486
    4   C4        -1.104440860     0.251162899     3.472476927     C.2   1  noname   -0.079276
    5   C5        -1.167604443     0.265253153     2.083365898     C.2   1  noname   -0.170508
    6   C6         0.000270317    -0.001699802     1.327992977     C.2   1  noname    0.138351
    7   N7        -0.000876458    -0.004278378    -0.044925219   N.pl3   1  noname    0.067164
    8   C8        -1.248815368     0.005799828    -0.807577146     C.3   1  noname   -0.172031
    9   C9        -1.055165035    -0.702490781    -2.147825834     C.3   1  noname   -0.137002
   10   C10        0.000873657     0.001191323    -3.022647455     C.3   1  noname   -0.202059
   11   C11        1.053873077     0.703973368    -2.144071667     C.3   1  noname   -0.136931
   12   C12        1.247030673    -0.010360758    -0.807309497     C.3   1  noname   -0.171106
   13   H13        2.112416865    -0.516673533     1.600497869       H   1  noname    0.099898
   14   H14        2.015378937    -0.457718427     4.046880244       H   1  noname    0.098203
   15   H15       -2.013338082     0.463906332     4.045863384       H   1  noname    0.098134
   16   H16       -2.112037666     0.512372672     1.600118677       H   1  noname    0.099743
   17   H17       -2.018330564    -0.521672128    -0.225215789       H   1  noname    0.119800
   18   H18       -1.618456096     1.038874187    -0.967289938       H   1  noname    0.091630
   19   H19       -2.021960535    -0.762361064    -2.668657621       H   1  noname    0.111032
   20   H20       -0.746025988    -1.739419956    -1.940282508       H   1  noname    0.096438
   21   H21        0.483641288    -0.737333191    -3.680461399       H   1  noname    0.100561
   22   H22       -0.479185618     0.739821914    -3.682262342       H   1  noname    0.100665
   23   H23        2.021260939     0.768577273    -2.663281017       H   1  noname    0.110982
   24   H24        0.741745876     1.739155562    -1.932058224       H   1  noname    0.096365
   25   H25        1.616740929    -1.042649320    -0.971459810       H   1  noname    0.091501
   26   H26        2.015614571     0.514781842    -0.221921358       H   1  noname    0.119502


@<TRIPOS>BOND
    1      1      2    2
    2      2      3    1
    3      3      4    2
    4      4      5    1
    5      5      6    2
    6      6      7    1
    7      7      8    1
    8      8      9    1
    9      9     10    1
   10     10     11    1
   11     11     12    1
   12      6      1    1
   13     12      7    1
   14      1     13    1
   15      2     14    1
   16      4     15    1
   17      5     16    1
   18      8     17    1
   19      8     18    1
   20      9     19    1
   21      9     20    1
   22     10     21    1
   23     10     22    1
   24     11     23    1
   25     11     24    1
   26     12     25    1
   27     12     26    1
#
#	File Created by: Spartan'20 Export
#

@<TRIPOS>MOLECULE
M0445
10 10
SMALL
MULLIKEN_CHARGES


@<TRIPOS>ATOM
    1   C1         1.134583762     0.000000000     0.699017153     C.2   1  noname   -0.027466
    2   C2         1.134588638     0.000000000    -0.698886255     C.2   1  noname   -0.027445
    3   N3         0.000056396     0.000000000    -1.411910074     N.2   1  noname   -0.140360
    4   C4        -1.134394212     0.000000000    -0.698908795     C.2   1  noname   -0.027461
    5   C5        -1.134414387     0.000000000     0.698996962     C.2   1  noname   -0.027470
    6   N6         0.000027589     0.000000000     1.412049225     N.2   1  noname   -0.140346
    7   H7         2.074139301     0.000000000     1.260357811       H   1  noname    0.119934
    8   H8         2.073982543     0.000000000    -1.260555591       H   1  noname    0.119950
    9   H9        -2.074218318     0.000000000    -1.260145671       H   1  noname    0.119911
   10   H10       -2.074351311     0.000000000     1.259985236       H   1  noname    0.119902


@<TRIPOS>BOND
    1      1      2    2
    2      2      3    1
    3      3      4    2
    4      4      5    1
    5      5      6    2
    6      6      1    1
    7      1      7    1
    8      2      8    1
    9      4      9    1
   10      5     10    1
#
#	File Created by: Spartan'20 Export
#

@<TRIPOS>MOLECULE
M0446
10 10
SMALL
MULLIKEN_CHARGES


@<TRIPOS>ATOM
    1   C1         0.000079408     0.000000000    -1.141171925     C.2   1  noname   -0.072096
    2   C2        -1.185871929     0.000000000    -0.408991249     C.2   1  noname   -0.034074
    3   N3        -1.201944066     0.000000000     0.931764235     N.2   1  noname   -0.153210
    4   C4         0.000077297     0.000000000     1.525281767     C.2   1  noname    0.043869
    5   N5         1.202078839     0.000000000     0.931748389     N.2   1  noname   -0.153212
    6   C6         1.186091773     0.000000000    -0.409042734     C.2   1  noname   -0.034055
    7   H7        -0.000208289     0.000000000    -2.231932096       H   1  noname    0.120766
    8   H8        -2.159970648     0.000000000    -0.908707482       H   1  noname    0.122920
    9   H9        -0.000338977     0.000000000     2.619907095       H   1  noname    0.125677
   10   H10        2.160006593     0.000000000    -0.908855999       H   1  noname    0.122932


@<TRIPOS>BOND
    1      1      2    2
    2      2      3    1
    3      3      4    2
    4      4      5    1
    5      5      6    2
    6      6      1    1
    7      1      7    1
    8      2      8    1
    9      4      9    1
   10      6     10    1
#
#	File Created by: Spartan'20 Export
#

@<TRIPOS>MOLECULE
M0447
8 8
SMALL
MULLIKEN_CHARGES


@<TRIPOS>ATOM
    1   C1        -0.053034209     0.000000000     0.782747806     C.2   1  noname   -0.122759
    2   C2         1.094983285     0.000000000    -0.056069932     C.2   1  noname   -0.074573
    3   N3         0.785608470     0.000000000    -1.336397040     N.2   1  noname   -0.080602
    4   O4        -0.618425361     0.000000000    -1.373199852     O.3   1  noname   -0.049346
    5   C5        -1.086091831     0.000000000    -0.107435353     C.2   1  noname   -0.001441
    6   H6        -0.101218823     0.000000000     1.865651393       H   1  noname    0.132880
    7   H7         2.145602119     0.000000000     0.226602143       H   1  noname    0.128721
    8   H8        -2.167423650     0.000000000    -0.001899164       H   1  noname    0.144986


@<TRIPOS>BOND
    1      1      2    1
    2      2      3    2
    3      3      4    1
    4      4      5    1
    5      5      1    2
    6      1      6    1
    7      2      7    1
    8      5      8    1
#
#	File Created by: Spartan'20 Export
#

@<TRIPOS>MOLECULE
M0448
8 8
SMALL
MULLIKEN_CHARGES


@<TRIPOS>ATOM
    1   C1        -0.667962304     0.000000000    -0.811952660     C.2   1  noname   -0.012966
    2   C2         0.668098036     0.000000000    -0.811949754     C.2   1  noname   -0.013014
    3   O3         1.117510467     0.000000000     0.497866420     O.3   1  noname   -0.127842
    4   C4         0.000032021     0.000000000     1.314232135     C.2   1  noname    0.299655
    5   O5        -0.000156599     0.000000000     2.509181712     O.2   1  noname   -0.210919
    6   O6        -1.117398430     0.000000000     0.497821101     O.3   1  noname   -0.127840
    7   H7        -1.413341142     0.000000000    -1.597503293       H   1  noname    0.154577
    8   H8         1.413217951     0.000000000    -1.597695662       H   1  noname    0.154576


@<TRIPOS>BOND
    1      1      2    2
    2      2      3    1
    3      3      4    1
    4      4      5    2
    5      4      6    1
    6      6      1    1
    7      1      7    1
    8      2      8    1
#
#	File Created by: Spartan'20 Export
#

@<TRIPOS>MOLECULE
M0449
11 11
SMALL
MULLIKEN_CHARGES


@<TRIPOS>ATOM
    1   C1        -1.220336083     0.000000000     0.447372726     C.2   1  noname   -0.156990
    2   C2        -1.164045951     0.000000000    -0.901017197     C.2   1  noname    0.048930
    3   O3         0.000049077     0.000000000    -1.609392307     O.3   1  noname   -0.119120
    4   C4         1.164243569     0.000000000    -0.901047469     C.2   1  noname    0.048933
    5   C5         1.220456226     0.000000000     0.447364984     C.2   1  noname   -0.157058
    6   C6        -0.000010019     0.000000000     1.262173700     C.2   1  noname    0.196223
    7   O7        -0.000246210     0.000000000     2.496655376     O.2   1  noname   -0.288986
    8   H8        -2.188394287     0.000000000     0.948459659       H   1  noname    0.127296
    9   H9        -2.025121767     0.000000000    -1.569375244       H   1  noname    0.141645
   10   H10        2.024994421     0.000000000    -1.569715759       H   1  noname    0.141662
   11   H11        2.188411021     0.000000000     0.948521530       H   1  noname    0.127290


@<TRIPOS>BOND
    1      1      2    2
    2      2      3    1
    3      3      4    1
    4      4      5    2
    5      5      6    1
    6      6      7    2
    7      6      1    1
    8      1      8    1
    9      2      9    1
   10      4     10    1
   11      5     11    1
#
#	File Created by: Spartan'20 Export
#

@<TRIPOS>MOLECULE
M0450
8 8
SMALL
MULLIKEN_CHARGES


@<TRIPOS>ATOM
    1   C1        -0.645505780     0.000000000    -0.804004316     C.2   1  noname   -0.098666
    2   C2         0.713174951     0.000000000    -0.733243098     C.2   1  noname   -0.002534
    3   O3         1.068419576     0.000000000     0.594011756     O.3   1  noname   -0.130210
    4   C4        -0.125357467     0.000000000     1.254541003     C.2   1  noname    0.075897
    5   N5        -1.170472403     0.000000000     0.483911116     N.2   1  noname   -0.172460
    6   H6        -1.284445626     0.000000000    -1.682597161       H   1  noname    0.128215
    7   H7         1.524636302     0.000000000    -1.452258209       H   1  noname    0.143789
    8   H8        -0.080449554     0.000000000     2.339638908       H   1  noname    0.143877


@<TRIPOS>BOND
    1      1      2    2
    2      2      3    1
    3      3      4    1
    4      4      5    2
    5      5      1    1
    6      1      6    1
    7      2      7    1
    8      4      8    1
#
#	File Created by: Spartan'20 Export
#

@<TRIPOS>MOLECULE
M0451
8 8
SMALL
MULLIKEN_CHARGES


@<TRIPOS>ATOM
    1   C1        -0.366873206     0.000000000    -0.924158798     C.2   1  noname   -0.097456
    2   C2        -1.125793365     0.000000000     0.219903887     C.2   1  noname   -0.090822
    3   S3        -0.094226886     0.000000000     1.594364227     S.3   1  noname    0.066235
    4   C4         1.279996846     0.000000000     0.534438423     C.2   1  noname   -0.043682
    5   N5         0.992862733     0.000000000    -0.742950432     N.2   1  noname   -0.148178
    6   H6        -0.772150752     0.000000000    -1.935629778       H   1  noname    0.123020
    7   H7        -2.207366058     0.000000000     0.321094572       H   1  noname    0.142550
    8   H8         2.293550687     0.000000000     0.932937899       H   1  noname    0.145607


@<TRIPOS>BOND
    1      1      2    2
    2      2      3    1
    3      3      4    1
    4      4      5    2
    5      5      1    1
    6      1      6    1
    7      2      7    1
    8      4      8    1
#
#	File Created by: Spartan'20 Export
#

@<TRIPOS>MOLECULE
M0452
9 9
SMALL
MULLIKEN_CHARGES


@<TRIPOS>ATOM
    1   C1         0.000153012     0.000000000     1.296632050     C.2   1  noname    0.051645
    2   N2        -1.194553391     0.000000000     0.689942210     N.2   1  noname   -0.157074
    3   C3        -1.122585997     0.000000000    -0.648072720     C.2   1  noname    0.051325
    4   N4         0.000097990     0.000000000    -1.379267867     N.2   1  noname   -0.156727
    5   C5         1.122956648     0.000000000    -0.648120142     C.2   1  noname    0.051422
    6   N6         1.194848457     0.000000000     0.689935431     N.2   1  noname   -0.157084
    7   H7        -0.000689614     0.000000000     2.391784973       H   1  noname    0.137073
    8   H8        -2.071117641     0.000000000    -1.196105609       H   1  noname    0.137218
    9   H9         2.070890538     0.000000000    -1.196728326       H   1  noname    0.137254


@<TRIPOS>BOND
    1      1      2    2
    2      2      3    1
    3      3      4    2
    4      4      5    1
    5      5      6    2
    6      6      1    1
    7      1      7    1
    8      3      8    1
    9      5      9    1
