#
#	File Created by: Spartan'20 Export
#

@<TRIPOS>MOLECULE
M0001
5 4
SMALL
USER_CHARGES


@<TRIPOS>ATOM
    1   C1         0.000000000     0.000000000    -1.308414961     C.1   1  noname   -0.320551
    2   C2         0.000000000     0.000000000    -0.085362758     C.1   1  noname   -0.018668
    3   C3         0.000000000     0.000000000     1.291429678     C.1   1  noname    0.382472
    4   N4         0.000000000     0.000000000     2.479033272     N.1   1  noname   -0.383613
    5   H5         0.000000000     0.000000000    -2.376685230       H   1  noname    0.340361


@<TRIPOS>BOND
    1      1      2    3
    2      2      3    1
    3      3      4    3
    4      1      5    1
#
#	File Created by: Spartan'20 Export
#

@<TRIPOS>MOLECULE
M0002
9 8
SMALL
USER_CHARGES


@<TRIPOS>ATOM
    1   C1        -1.929844761     0.321838466    -0.948619243     C.1   1  noname   -0.455186
    2   C2        -0.801904839     0.017945751    -0.596956638     C.1   1  noname   -0.060272
    3   C3         0.530250199    -0.393116214    -0.142842571     C.3   1  noname    0.339636
    4   N4         1.033800798     0.532974403     0.880732348     N.3   1  noname   -0.899658
    5   H5        -2.901369551     0.619700155    -1.272319338       H   1  noname    0.323964
    6   H6         0.477628295    -1.444939224     0.183015241       H   1  noname   -0.002620
    7   H7         1.223475047    -0.361786779    -0.990625317       H   1  noname    0.056678
    8   H8         0.419044391     0.495684732     1.692412498       H   1  noname    0.366798
    9   H9         1.948920421     0.211698712     1.195203021       H   1  noname    0.330659


@<TRIPOS>BOND
    1      1      2    3
    2      2      3    1
    3      3      4    1
    4      1      5    1
    5      3      6    1
    6      3      7    1
    7      4      8    1
    8      4      9    1
#
#	File Created by: Spartan'20 Export
#

@<TRIPOS>MOLECULE
M0003
19 18
SMALL
USER_CHARGES


@<TRIPOS>ATOM
    1   C1        -2.893999328     1.192698332     0.307018371     C.1   1  noname   -0.470591
    2   C2        -1.770581912     0.902861997    -0.072984144     C.1   1  noname    0.026638
    3   C3        -0.425482973     0.725585859    -0.623964065     C.3   1  noname   -0.018203
    4   N4         0.426326284    -0.161209648     0.185112268     N.3   1  noname   -0.182822
    5   C5         1.840928108     0.092395053    -0.130473361     C.3   1  noname   -0.298871
    6   C6         2.256244450     1.438761448     0.266072110     C.1   1  noname    0.118423
    7   C7         2.659682500     2.550466787     0.566936224     C.1   1  noname   -0.493708
    8   C8         0.154467596    -1.576611238    -0.098689364     C.3   1  noname   -0.189017
    9   C9        -1.181561045    -2.015569177     0.306622012     C.1   1  noname    0.131609
   10   C10       -2.231425330    -2.542684945     0.638803010     C.1   1  noname   -0.509747
   11   H11       -3.874287485     1.355770425     0.694262422       H   1  noname    0.325228
   12   H12        0.059383649     1.707250112    -0.646728249       H   1  noname    0.141835
   13   H13       -0.486571000     0.372371306    -1.671392484       H   1  noname    0.111798
   14   H14        2.440011953    -0.643444233     0.418184178       H   1  noname    0.199380
   15   H15        2.057419526    -0.058897759    -1.206625381       H   1  noname    0.147088
   16   H16        2.969501851     3.527937198     0.861772073       H   1  noname    0.336738
   17   H17        0.895313914    -2.168713728     0.452241692       H   1  noname    0.156978
   18   H18        0.300114749    -1.802942713    -1.174084486       H   1  noname    0.128002
   19   H19       -3.195485505    -2.896025077     0.927917173       H   1  noname    0.339241


@<TRIPOS>BOND
    1      1      2    3
    2      2      3    1
    3      3      4    1
    4      4      5    1
    5      5      6    1
    6      6      7    3
    7      4      8    1
    8      8      9    1
    9      9     10    3
   10      1     11    1
   11      3     12    1
   12      3     13    1
   13      5     14    1
   14      5     15    1
   15      7     16    1
   16      8     17    1
   17      8     18    1
   18     10     19    1
#
#	File Created by: Spartan'20 Export
#

@<TRIPOS>MOLECULE
M0004
3 2
SMALL
USER_CHARGES


@<TRIPOS>ATOM
    1   C1         0.000000000     0.000000000    -0.151173971     C.1   1  noname    0.274774
    2   N2         0.000000000     0.000000000    -1.335648225     N.1   1  noname   -0.363721
    3   Cl3        0.000000000     0.000000000     1.486822196      Cl   1  noname    0.088947


@<TRIPOS>BOND
    1      1      2    3
    2      1      3    1
#
#	File Created by: Spartan'20 Export
#

@<TRIPOS>MOLECULE
M0005
13 13
SMALL
USER_CHARGES


@<TRIPOS>ATOM
    1   C1         0.000043437     0.000000000     2.518941268     C.1   1  noname    0.417702
    2   N2         0.000054792     0.000000000     3.702331706     N.1   1  noname   -0.397443
    3   C3         0.000024716     0.000000000     1.091713117     C.2   1  noname   -0.261014
    4   C4         1.204749765     0.000000000     0.378677739     C.2   1  noname    0.261012
    5   C5         1.209817886     0.000000000    -1.011922554     C.2   1  noname    0.062385
    6   C6        -0.000049079     0.000000000    -1.704499350     C.2   1  noname    0.199260
    7   C7        -1.209880841     0.000000000    -1.011882648     C.2   1  noname    0.062399
    8   C8        -1.204737058     0.000000000     0.378717118     C.2   1  noname    0.260999
    9   F9        -2.371318062     0.000000000     1.037979323       F   1  noname   -0.132205
   10   F10       -2.365786240     0.000000000    -1.687798956       F   1  noname   -0.112843
   11   F11       -0.000069463     0.000000000    -3.042521286       F   1  noname   -0.115206
   12   F12        2.365690552     0.000000000    -1.687896397       F   1  noname   -0.112842
   13   F13        2.371361754     0.000000000     1.037883136       F   1  noname   -0.132206


@<TRIPOS>BOND
    1      1      2    3
    2      1      3    1
    3      3      4    2
    4      4      5    1
    5      5      6    2
    6      6      7    1
    7      7      8    2
    8      8      9    1
    9      7     10    1
   10      6     11    1
   11      5     12    1
   12      4     13    1
   13      8      3    1
#
#	File Created by: Spartan'20 Export
#

@<TRIPOS>MOLECULE
M0006
6 5
SMALL
USER_CHARGES


@<TRIPOS>ATOM
    1   C1         0.307539692     0.000000000     0.589251365     C.2   1  noname    0.632565
    2   O2        -0.267013365     0.000000000     1.670988715     O.2   1  noname   -0.574659
    3   N3        -0.317927437     0.000000000    -0.620286603    N.am   1  noname   -0.928177
    4   H4         1.408010009     0.000000000     0.494218221       H   1  noname    0.041100
    5   H5         0.197648058     0.000000000    -1.486880541       H   1  noname    0.399223
    6   H6        -1.328256957     0.000000000    -0.647291157       H   1  noname    0.429949


@<TRIPOS>BOND
    1      1      2    2
    2      1      3    am
    3      1      4    1
    4      3      5    1
    5      3      6    1
#
#	File Created by: Spartan'20 Export
#

@<TRIPOS>MOLECULE
M0007
6 5
SMALL
USER_CHARGES


@<TRIPOS>ATOM
    1   C1         0.343818606     0.000000538    -0.308574630     C.3   1  noname   -0.294119
    2   C2        -0.506449363     0.000001656     0.880139360     C.1   1  noname    0.375725
    3   N3        -1.171334060    -0.000001946     1.855936954     N.1   1  noname   -0.412085
    4   Cl4       -0.619038297    -0.000000086    -1.807748427      Cl   1  noname   -0.074308
    5   H5         0.976500658    -0.888780592    -0.309875597       H   1  noname    0.202393
    6   H6         0.976502456     0.888780430    -0.309877660       H   1  noname    0.202393


@<TRIPOS>BOND
    1      1      2    1
    2      2      3    3
    3      1      4    1
    4      1      5    1
    5      1      6    1
#
#	File Created by: Spartan'20 Export
#

@<TRIPOS>MOLECULE
M0008
10 9
SMALL
USER_CHARGES


@<TRIPOS>ATOM
    1   C1         1.272903387    -0.000610403    -0.312592121     C.3   1  noname   -0.396511
    2   C2         0.052357638    -0.585183586     0.377261864     C.2   1  noname    0.766084
    3   O3         0.143954809    -1.611092547     1.039987848     O.2   1  noname   -0.529507
    4   C4        -1.283740007     0.123173344     0.232916682     C.3   1  noname   -0.389927
    5   Cl5       -1.688456116     0.398155699    -1.481970030      Cl   1  noname   -0.113745
    6   Cl6        1.497497404     1.715225419     0.118392959      Cl   1  noname   -0.111585
    7   H7         2.145698697    -0.563561538     0.015727585       H   1  noname    0.198683
    8   H8         1.168970163    -0.060902298    -1.397304541       H   1  noname    0.191178
    9   H9        -1.259613540     1.095071463     0.728895363       H   1  noname    0.188200
   10   H10       -2.049572435    -0.510275553     0.678684391       H   1  noname    0.197130


@<TRIPOS>BOND
    1      1      2    1
    2      2      3    2
    3      2      4    1
    4      4      5    1
    5      1      6    1
    6      1      7    1
    7      1      8    1
    8      4      9    1
    9      4     10    1
#
#	File Created by: Spartan'20 Export
#

@<TRIPOS>MOLECULE
M0009
10 9
SMALL
USER_CHARGES


@<TRIPOS>ATOM
    1   C1         0.325872891    -0.466594673    -0.064313512     C.3   1  noname    0.023928
    2   C2        -1.092108120    -0.017816077     0.179176013     C.3   1  noname    0.662552
    3   F3        -1.681709908     0.475992983    -0.924014737       F   1  noname   -0.217026
    4   F4        -1.846376825    -1.055221595     0.618293083       F   1  noname   -0.268349
    5   F5        -1.134562812     0.946826443     1.132942354       F   1  noname   -0.216720
    6   N6         1.136715690     0.675606352    -0.457269690     N.3   1  noname   -0.925298
    7   H7         0.294538254    -1.191678467    -0.880961754       H   1  noname    0.118714
    8   H8         0.646247971    -0.995162480     0.845664907       H   1  noname    0.061646
    9   H9         1.311553424     1.269274423     0.349932529       H   1  noname    0.378069
   10   H10        2.039829436     0.358773091    -0.799449193       H   1  noname    0.382483


@<TRIPOS>BOND
    1      1      2    1
    2      2      3    1
    3      2      4    1
    4      2      5    1
    5      1      6    1
    6      1      7    1
    7      1      8    1
    8      6      9    1
    9      6     10    1
#
#	File Created by: Spartan'20 Export
#

@<TRIPOS>MOLECULE
M0010
9 8
SMALL
USER_CHARGES


@<TRIPOS>ATOM
    1   C1         0.592087152     0.365273986    -0.175223449     C.3   1  noname   -0.070119
    2   C2        -0.855082182     0.058509522     0.127116031     C.3   1  noname    0.595420
    3   F3        -1.174572426    -1.184065650    -0.322128828       F   1  noname   -0.215430
    4   F4        -1.126186572     0.092227388     1.444049145       F   1  noname   -0.196626
    5   F5        -1.668768245     0.943220412    -0.491852033       F   1  noname   -0.231962
    6   O6         1.451647986    -0.586527388     0.415868051     O.3   1  noname   -0.585613
    7   H7         0.695656166     0.422925874    -1.265943494       H   1  noname    0.108832
    8   H8         0.836610501     1.337288056     0.254659505       H   1  noname    0.166609
    9   H9         1.248607621    -1.448852201     0.013455072       H   1  noname    0.428888


@<TRIPOS>BOND
    1      1      2    1
    2      2      3    1
    3      2      4    1
    4      2      5    1
    5      1      6    1
    6      1      7    1
    7      1      8    1
    8      6      9    1
#
#	File Created by: Spartan'20 Export
#

@<TRIPOS>MOLECULE
M0011
16 15
SMALL
USER_CHARGES


@<TRIPOS>ATOM
    1   C1         1.205322557     0.455992011    -0.730779070     C.3   1  noname    0.083692
    2   C2         2.102929771    -0.306506357     0.240358013     C.3   1  noname   -0.270965
    3   Cl3        3.697289994    -0.635727948    -0.500028405      Cl   1  noname   -0.175547
    4   N4        -0.108260568     0.792729719    -0.196036373     N.3   1  noname   -0.818062
    5   C5        -0.950728470    -0.348132128     0.151803303     C.3   1  noname    0.315203
    6   C6        -2.394601694     0.123540592     0.188830761     C.3   1  noname   -0.396500
    7   Cl7       -3.491597355    -1.222252980     0.615636933      Cl   1  noname   -0.168379
    8   H8         1.702965753     1.384271846    -1.027785284       H   1  noname    0.099834
    9   H9         1.064559512    -0.139584799    -1.638333005       H   1  noname    0.111111
   10   H10        2.277224006     0.276657694     1.147328141       H   1  noname    0.175727
   11   H11        1.669976012    -1.268705148     0.516655628       H   1  noname    0.154260
   12   H12       -0.006816954     1.410495621     0.608666513       H   1  noname    0.385903
   13   H13       -0.701593845    -0.834148358     1.107111067       H   1  noname    0.017597
   14   H14       -0.843547714    -1.103342777    -0.633411080       H   1  noname    0.081821
   15   H15       -2.689387568     0.508227460    -0.786534770       H   1  noname    0.206323
   16   H16       -2.533733436     0.906485553     0.936517626       H   1  noname    0.197982


@<TRIPOS>BOND
    1      1      2    1
    2      2      3    1
    3      1      4    1
    4      4      5    1
    5      5      6    1
    6      6      7    1
    7      1      8    1
    8      1      9    1
    9      2     10    1
   10      2     11    1
   11      4     12    1
   12      5     13    1
   13      5     14    1
   14      6     15    1
   15      6     16    1
#
#	File Created by: Spartan'20 Export
#

@<TRIPOS>MOLECULE
M0012
9 8
SMALL
USER_CHARGES


@<TRIPOS>ATOM
    1   C1         0.503099504    -0.426309745     0.295529552     C.3   1  noname    0.160271
    2   C2        -0.855907654    -0.087991172    -0.286748063     C.3   1  noname   -0.282117
    3   Cl3       -1.310243526     1.594464934     0.121497126      Cl   1  noname   -0.158674
    4   O4         1.545018809     0.345272389    -0.277075549     O.3   1  noname   -0.638278
    5   H5         0.473586207    -0.326629264     1.388516301       H   1  noname    0.055459
    6   H6         0.732235373    -1.467750189     0.053352288       H   1  noname    0.099683
    7   H7        -1.632568129    -0.742749302     0.112133975       H   1  noname    0.155701
    8   H8        -0.830968325    -0.160656812    -1.373990507       H   1  noname    0.187270
    9   H9         1.375747742     1.272349162    -0.033215124       H   1  noname    0.420685


@<TRIPOS>BOND
    1      1      2    1
    2      2      3    1
    3      1      4    1
    4      1      5    1
    5      1      6    1
    6      2      7    1
    7      2      8    1
    8      4      9    1
#
#	File Created by: Spartan'20 Export
#

@<TRIPOS>MOLECULE
M0013
15 14
SMALL
USER_CHARGES


@<TRIPOS>ATOM
    1   C1         1.039814759     0.546256110    -0.506599096     C.3   1  noname    0.000974
    2   C2         2.162938158     0.951710845     0.417087239     C.3   1  noname   -0.258505
    3   Cl3        2.967129627    -0.465699614     1.142232246      Cl   1  noname   -0.151324
    4   O4         0.000000000     0.000000000     0.283833463     O.3   1  noname   -0.266035
    5   C5        -1.039814759    -0.546256110    -0.506599096     C.3   1  noname    0.000974
    6   C6        -2.162938157    -0.951710845     0.417087238     C.3   1  noname   -0.258505
    7   Cl7       -2.967129626     0.465699614     1.142232246      Cl   1  noname   -0.151324
    8   H8         0.685116107     1.439112120    -1.045952027       H   1  noname    0.090068
    9   H9         1.399156566    -0.182840017    -1.246865264       H   1  noname    0.102774
   10   H10        2.918797879     1.516330780    -0.131706078       H   1  noname    0.164076
   11   H11        1.769589925     1.562512690     1.229886248       H   1  noname    0.184955
   12   H12       -0.685116107    -1.439112119    -1.045952027       H   1  noname    0.090068
   13   H13       -1.399156565     0.182840017    -1.246865263       H   1  noname    0.102774
   14   H14       -2.918797879    -1.516330780    -0.131706077       H   1  noname    0.164076
   15   H15       -1.769589927    -1.562512691     1.229886248       H   1  noname    0.184955


@<TRIPOS>BOND
    1      1      2    1
    2      2      3    1
    3      1      4    1
    4      4      5    1
    5      5      6    1
    6      6      7    1
    7      1      8    1
    8      1      9    1
    9      2     10    1
   10      2     11    1
   11      5     12    1
   12      5     13    1
   13      6     14    1
   14      6     15    1
#
#	File Created by: Spartan'20 Export
#

@<TRIPOS>MOLECULE
M0014
11 10
SMALL
USER_CHARGES


@<TRIPOS>ATOM
    1   C1         0.000000000     0.000000000     0.656742792     C.3   1  noname   -0.161727
    2   C2        -1.094187577     0.604738269    -0.195502459     C.3   1  noname    0.063539
    3   F3        -1.657918823    -0.409778236    -0.983688494       F   1  noname   -0.268031
    4   C4         1.094187576    -0.604738269    -0.195502460     C.3   1  noname    0.063539
    5   F5         1.657918825     0.409778236    -0.983688492       F   1  noname   -0.268031
    6   H6        -0.428096309    -0.775006445     1.302274169       H   1  noname    0.091788
    7   H7         0.428096310     0.775006446     1.302274167       H   1  noname    0.091788
    8   H8        -0.691261375     1.366896498    -0.866232200       H   1  noname    0.113290
    9   H9        -1.891603958     1.038713067     0.414777590       H   1  noname    0.080277
   10   H10        1.891603955    -1.038713069     0.414777589       H   1  noname    0.080277
   11   H11        0.691261374    -1.366896498    -0.866232201       H   1  noname    0.113290


@<TRIPOS>BOND
    1      1      2    1
    2      2      3    1
    3      1      4    1
    4      4      5    1
    5      1      6    1
    6      1      7    1
    7      2      8    1
    8      2      9    1
    9      4     10    1
   10      4     11    1
#
#	File Created by: Spartan'20 Export
#

@<TRIPOS>MOLECULE
M0015
17 16
SMALL
USER_CHARGES


@<TRIPOS>ATOM
    1   C1         1.331275939    -1.141339254     0.329110582     C.3   1  noname   -0.705499
    2   C2         0.586653464     0.154455761     0.134723587     C.2   1  noname    0.727608
    3   N3         1.153211053     1.337960295     0.070598034     N.2   1  noname   -0.648917
    4   C4         2.478437095     1.422968195     0.242690874     C.1   1  noname    0.556862
    5   N5         3.648555794     1.585046541     0.377250508     N.1   1  noname   -0.572438
    6   N6        -0.766025365     0.113113833     0.035335085   N.pl3   1  noname   -0.057317
    7   C7        -1.488273546    -1.120313160    -0.241281633     C.3   1  noname   -0.514377
    8   C8        -1.477030309     1.357236663    -0.243109025     C.3   1  noname   -0.559683
    9   H9         0.960070093    -1.678513054     1.206365552       H   1  noname    0.202881
   10   H10        2.392587988    -0.934785726     0.471033648       H   1  noname    0.200980
   11   H11        1.218477810    -1.791693153    -0.543392480       H   1  noname    0.213738
   12   H12       -2.501411951    -1.026502045     0.155601452       H   1  noname    0.198375
   13   H13       -1.553438788    -1.321056954    -1.318534161       H   1  noname    0.185800
   14   H14       -1.011826499    -1.967059829     0.248943031       H   1  noname    0.172678
   15   H15       -1.373813696     1.649355807    -1.294501574       H   1  noname    0.197744
   16   H16       -1.064902286     2.152056111     0.376640138       H   1  noname    0.194305
   17   H17       -2.532546795     1.209069967    -0.007473617       H   1  noname    0.207262


@<TRIPOS>BOND
    1      1      2    1
    2      2      3    2
    3      3      4    1
    4      4      5    3
    5      2      6    1
    6      6      7    1
    7      6      8    1
    8      1      9    1
    9      1     10    1
   10      1     11    1
   11      7     12    1
   12      7     13    1
   13      7     14    1
   14      8     15    1
   15      8     16    1
   16      8     17    1
#
#	File Created by: Spartan'20 Export
#

@<TRIPOS>MOLECULE
M0016
18 18
SMALL
USER_CHARGES


@<TRIPOS>ATOM
    1   C1        -0.106493208     0.000000000     3.504686831     C.3   1  noname   -0.214705
    2   N2        -0.526609727     0.000000000     2.101056193     N.2   1  noname   -0.416251
    3   C3         0.420486587     0.000000000     1.233337240     C.2   1  noname    0.211231
    4   C4         0.153513875     0.000000000    -0.212434366     C.2   1  noname    0.038980
    5   C5        -1.160014153     0.000000000    -0.706938024     C.2   1  noname   -0.099976
    6   C6        -1.384956930     0.000000000    -2.080520975     C.2   1  noname   -0.135842
    7   C7        -0.307867571     0.000000000    -2.974795121     C.2   1  noname   -0.140378
    8   C8         0.999915697     0.000000000    -2.486866332     C.2   1  noname   -0.109381
    9   C9         1.229266010     0.000000000    -1.110473184     C.2   1  noname   -0.207679
   10   H10       -0.993175700     0.000000000     4.139718872       H   1  noname    0.124956
   11   H11        0.489086877     0.888884376     3.740075704       H   1  noname    0.108889
   12   H12        0.489086877    -0.888884376     3.740075704       H   1  noname    0.108889
   13   H13        1.485596054     0.000000000     1.523363314       H   1  noname    0.079938
   14   H14       -1.983502387     0.000000000     0.001833523       H   1  noname    0.113134
   15   H15       -2.403974944     0.000000000    -2.459985019       H   1  noname    0.135432
   16   H16       -0.489328402     0.000000000    -4.046836697       H   1  noname    0.136399
   17   H17        1.839908702     0.000000000    -3.177051337       H   1  noname    0.130959
   18   H18        2.249062345     0.000000000    -0.728246325       H   1  noname    0.135404


@<TRIPOS>BOND
    1      1      2    1
    2      2      3    2
    3      3      4    1
    4      4      5    2
    5      5      6    1
    6      6      7    2
    7      7      8    1
    8      8      9    2
    9      9      4    1
   10      1     10    1
   11      1     11    1
   12      1     12    1
   13      3     13    1
   14      5     14    1
   15      6     15    1
   16      7     16    1
   17      8     17    1
   18      9     18    1
#
#	File Created by: Spartan'20 Export
#

@<TRIPOS>MOLECULE
M0017
12 12
SMALL
USER_CHARGES


@<TRIPOS>ATOM
    1   C1        -1.266712284     0.000000000    -0.674611804     C.2   1  noname   -0.302862
    2   C2        -1.266712284     0.000000000     0.674611804     C.2   1  noname   -0.302862
    3   C3         0.000000000     0.000000000     1.440935015     C.2   1  noname    0.764523
    4   O4         0.000000000     0.000000000     2.678467896     O.2   1  noname   -0.551312
    5   C5         1.266712284     0.000000000     0.674611804     C.2   1  noname   -0.302862
    6   C6         1.266712284     0.000000000    -0.674611804     C.2   1  noname   -0.302862
    7   C7         0.000000000     0.000000000    -1.440935015     C.2   1  noname    0.764523
    8   O8         0.000000000     0.000000000    -2.678467896     O.2   1  noname   -0.551312
    9   H9        -2.182876378     0.000000000    -1.259595245       H   1  noname    0.196257
   10   H10       -2.182876377     0.000000000     1.259595245       H   1  noname    0.196257
   11   H11        2.182876377     0.000000000     1.259595245       H   1  noname    0.196257
   12   H12        2.182876377     0.000000000    -1.259595245       H   1  noname    0.196257


@<TRIPOS>BOND
    1      1      2    2
    2      2      3    1
    3      3      4    2
    4      3      5    1
    5      5      6    2
    6      6      7    1
    7      7      8    2
    8      7      1    1
    9      1      9    1
   10      2     10    1
   11      5     11    1
   12      6     12    1
#
#	File Created by: Spartan'20 Export
#

@<TRIPOS>MOLECULE
M0018
10 10
SMALL
USER_CHARGES


@<TRIPOS>ATOM
    1   C1         1.194285587     0.259038247    -0.650851017     C.3   1  noname   -0.203936
    2   C2         0.282089338    -0.386946051     0.292379390     C.3   1  noname    0.152949
    3   O3         0.698805247    -1.075807419    -0.900220681     O.3   1  noname   -0.352231
    4   C4        -1.175033161    -0.031489228     0.318248512     C.3   1  noname   -0.313913
    5   Cl5       -1.482016053     1.234039736     1.539464187      Cl   1  noname   -0.152269
    6   H6         2.253999119     0.321749002    -0.416744203       H   1  noname    0.160947
    7   H7         0.812256024     1.025678477    -1.321691705       H   1  noname    0.178961
    8   H8         0.685908926    -0.794145134     1.218926318       H   1  noname    0.127344
    9   H9        -1.785649793    -0.897419954     0.577825202       H   1  noname    0.199259
   10   H10       -1.484645234     0.345302323    -0.657336004       H   1  noname    0.202889


@<TRIPOS>BOND
    1      1      2    1
    2      2      3    1
    3      2      4    1
    4      4      5    1
    5      3      1    1
    6      1      6    1
    7      1      7    1
    8      2      8    1
    9      4      9    1
   10      4     10    1
#
#	File Created by: Spartan'20 Export
#

@<TRIPOS>MOLECULE
M0019
26 28
SMALL
USER_CHARGES


@<TRIPOS>ATOM
    1   C1        -0.000003430     0.000002745     1.789092068     C.3   1  noname   -0.877541
    2   C2         0.000002193    -1.253294269     0.903491497     C.3   1  noname    0.687162
    3   C3        -1.253696010    -1.249259023     0.015542121     C.3   1  noname   -0.837960
    4   C4        -1.234224155     0.000001200    -0.852973405     C.3   1  noname    1.092456
    5   C5        -1.253699629     1.249261231     0.015544332     C.3   1  noname   -0.837959
    6   C6        -0.000000151     1.253299467     0.903493146     C.3   1  noname    0.687160
    7   C7         1.253698273     1.249260535     0.015542507     C.3   1  noname   -0.837950
    8   C8         1.234226279    -0.000000364    -0.852975286     C.3   1  noname    1.092451
    9   C9         1.253697985    -1.249262161     0.015537986     C.3   1  noname   -0.837952
   10   C10        0.000000743    -0.000004134    -1.746417143     C.3   1  noname   -0.832736
   11   F11        2.379289218     0.000007284    -1.673702621       F   1  noname   -0.394927
   12   F12       -2.379277780     0.000002864    -1.673714148       F   1  noname   -0.394928
   13   H13        0.882991541     0.000004679     2.441512032       H   1  noname    0.197273
   14   H14       -0.883001499    -0.000002614     2.441507122       H   1  noname    0.197275
   15   H15        0.000005605    -2.153609602     1.530521416       H   1  noname   -0.003913
   16   H16       -1.284101647    -2.136405303    -0.629155339       H   1  noname    0.186004
   17   H17       -2.166465330    -1.251295192     0.623928790       H   1  noname    0.194688
   18   H18       -2.166466907     1.251286211     0.623930633       H   1  noname    0.194688
   19   H19       -1.284117385     2.136413220    -0.629148081       H   1  noname    0.186003
   20   H20        0.000004811     2.153618442     1.530518516       H   1  noname   -0.003913
   21   H21        1.284115669     2.136405774    -0.629156212       H   1  noname    0.186002
   22   H22        2.166466090     1.251297033     0.623932425       H   1  noname    0.194686
   23   H23        1.284096716    -2.136404517    -0.629162027       H   1  noname    0.186002
   24   H24        2.166470904    -1.251311374     0.623923904       H   1  noname    0.194685
   25   H25       -0.000007252    -0.886786993    -2.390798014       H   1  noname    0.191623
   26   H26       -0.000004855     0.886774859    -2.390816220       H   1  noname    0.191621


@<TRIPOS>BOND
    1      1      2    1
    2      2      3    1
    3      3      4    1
    4      4      5    1
    5      5      6    1
    6      6      7    1
    7      7      8    1
    8      8      9    1
    9      8     10    1
   10      8     11    1
   11      4     12    1
   12      6      1    1
   13      9      2    1
   14     10      4    1
   15      1     13    1
   16      1     14    1
   17      2     15    1
   18      3     16    1
   19      3     17    1
   20      5     18    1
   21      5     19    1
   22      6     20    1
   23      7     21    1
   24      7     22    1
   25      9     23    1
   26      9     24    1
   27     10     25    1
   28     10     26    1
#
#	File Created by: Spartan'20 Export
#

@<TRIPOS>MOLECULE
M0020
26 28
SMALL
USER_CHARGES


@<TRIPOS>ATOM
    1   C1         1.446195701     0.000004549    -1.037622958     C.3   1  noname   -0.874984
    2   C2         0.723420103     1.253337532    -0.527515633     C.3   1  noname    0.775653
    3   C3        -0.723233554     1.252455013    -1.037857873     C.3   1  noname   -0.869816
    4   C4        -1.447474112     0.000010739    -0.527495762     C.3   1  noname    0.809132
    5   C5        -0.723242369    -1.252443345    -1.037840898     C.3   1  noname   -0.869831
    6   C6         0.723413852    -1.253326233    -0.527510620     C.3   1  noname    0.775668
    7   C7         0.720904958    -1.248619527     1.008174543     C.3   1  noname   -0.869634
    8   C8         0.000090557    -0.000004152     1.492916336     C.3   1  noname    1.206829
    9   C9         0.720905153     1.248613636     1.008170548     C.3   1  noname   -0.869616
   10   C10       -1.441613326    -0.000011029     1.008145425     C.3   1  noname   -0.864189
   11   F11       -0.000530941     0.000017318     2.905156141       F   1  noname   -0.425881
   12   H12        1.469937932    -0.000001210    -2.135666776       H   1  noname    0.189429
   13   H13        2.489486434     0.000001813    -0.694143494       H   1  noname    0.179239
   14   H14        1.241845268     2.151740871    -0.887385619       H   1  noname   -0.033655
   15   H15       -1.244756387     2.156433108    -0.695299187       H   1  noname    0.176170
   16   H16       -0.734532991     1.272101207    -2.135942938       H   1  noname    0.185379
   17   H17       -2.484759213     0.000020763    -0.887161090       H   1  noname   -0.046186
   18   H18       -0.734548526    -1.272134723    -2.135926590       H   1  noname    0.185381
   19   H19       -1.244766644    -2.156399142    -0.695231435       H   1  noname    0.176173
   20   H20        1.241839638    -2.151722719    -0.887396951       H   1  noname   -0.033656
   21   H21        1.744508914    -1.251901627     1.404140407       H   1  noname    0.184680
   22   H22        0.212076544    -2.136395954     1.404774320       H   1  noname    0.184090
   23   H23        0.212078503     2.136387723     1.404787480       H   1  noname    0.184086
   24   H24        1.744503552     1.251890035     1.404144706       H   1  noname    0.184678
   25   H25       -1.955862448    -0.884692273     1.404762383       H   1  noname    0.180432
   26   H26       -1.955886599     0.884637627     1.404825533       H   1  noname    0.180429


@<TRIPOS>BOND
    1      1      2    1
    2      2      3    1
    3      3      4    1
    4      4      5    1
    5      5      6    1
    6      6      7    1
    7      7      8    1
    8      8      9    1
    9      8     10    1
   10      8     11    1
   11      6      1    1
   12      9      2    1
   13     10      4    1
   14      1     12    1
   15      1     13    1
   16      2     14    1
   17      3     15    1
   18      3     16    1
   19      4     17    1
   20      5     18    1
   21      5     19    1
   22      6     20    1
   23      7     21    1
   24      7     22    1
   25      9     23    1
   26      9     24    1
   27     10     25    1
   28     10     26    1
#
#	File Created by: Spartan'20 Export
#

@<TRIPOS>MOLECULE
M0021
28 30
SMALL
USER_CHARGES


@<TRIPOS>ATOM
    1   C1         0.737774817    -1.251904133    -1.258903974     C.3   1  noname   -0.897800
    2   C2         1.445869869     0.000021049    -0.727883192     C.3   1  noname    0.883358
    3   C3         0.737766917     1.251923925    -1.258946823     C.3   1  noname   -0.897810
    4   C4        -0.722159932     1.251742799    -0.790361565     C.3   1  noname    0.754452
    5   C5        -1.428680943     0.000012936    -1.324079699     C.3   1  noname   -0.855068
    6   C6        -0.722159820    -1.251715489    -0.790345386     C.3   1  noname    0.754463
    7   C7        -0.771264715    -1.244886831     0.741968821     C.3   1  noname   -0.799207
    8   C8        -0.070439911     0.000008305     1.291190986     C.3   1  noname    1.317117
    9   C9         1.387198258     0.000005011     0.804732018     C.3   1  noname   -0.931803
   10   C10       -0.771279171     1.244900787     0.741954152     C.3   1  noname   -0.799171
   11   N11       -0.208360010     0.000014219     2.750767210     N.3   1  noname   -1.109275
   12   H12        1.249134547    -2.155922942    -0.900731443       H   1  noname    0.176184
   13   H13        0.781399636    -1.272332388    -2.356360657       H   1  noname    0.185656
   14   H14        2.494191883     0.000016470    -1.056706353       H   1  noname   -0.063355
   15   H15        0.781352488     1.272249746    -2.356403229       H   1  noname    0.185660
   16   H16        1.249133292     2.155982355    -0.900885377       H   1  noname    0.176188
   17   H17       -1.229848514     2.150180505    -1.166955588       H   1  noname   -0.038279
   18   H18       -2.481492268     0.000009357    -1.011555003       H   1  noname    0.171056
   19   H19       -1.418722701    -0.000006420    -2.422590808       H   1  noname    0.184527
   20   H20       -1.229847341    -2.150144386    -1.166959857       H   1  noname   -0.038280
   21   H21       -1.807610589    -1.254583889     1.102704983       H   1  noname    0.161591
   22   H22       -0.281724367    -2.145860682     1.141560316       H   1  noname    0.149080
   23   H23        1.903780083    -0.884322596     1.206955895       H   1  noname    0.156090
   24   H24        1.903810696     0.884287346     1.207027928       H   1  noname    0.156091
   25   H25       -0.281799100     2.145891332     1.141582034       H   1  noname    0.149081
   26   H26       -1.807631634     1.254553237     1.102662521       H   1  noname    0.161579
   27   H27        0.280902484     0.814652293     3.128326878       H   1  noname    0.353943
   28   H28        0.280706046    -0.814771916     3.128235212       H   1  noname    0.353934


@<TRIPOS>BOND
    1      1      2    1
    2      2      3    1
    3      3      4    1
    4      4      5    1
    5      5      6    1
    6      6      7    1
    7      7      8    1
    8      8      9    1
    9      8     10    1
   10      8     11    1
   11      6      1    1
   12      9      2    1
   13     10      4    1
   14      1     12    1
   15      1     13    1
   16      2     14    1
   17      3     15    1
   18      3     16    1
   19      4     17    1
   20      5     18    1
   21      5     19    1
   22      6     20    1
   23      7     21    1
   24      7     22    1
   25      9     23    1
   26      9     24    1
   27     10     25    1
   28     10     26    1
   29     11     27    1
   30     11     28    1
#
#	File Created by: Spartan'20 Export
#

@<TRIPOS>MOLECULE
M0022
49 55
SMALL
USER_CHARGES


@<TRIPOS>ATOM
    1   C1         4.117487118     0.000046999    -0.472120296     C.3   1  noname   -0.963588
    2   C2         3.618454081    -0.000060341     0.979534112     C.3   1  noname    0.955046
    3   C3         2.761085508    -1.245644353     1.226164926     C.3   1  noname   -0.969255
    4   C4         1.566001523    -1.252260788     0.262026431     C.3   1  noname    0.738747
    5   C5         2.065779782    -1.246678631    -1.190390298     C.3   1  noname   -0.965348
    6   C6         2.922842415     0.000128704    -1.435152910     C.3   1  noname    0.916820
    7   C7         2.065813106     1.246927201    -1.190215891     C.3   1  noname   -0.965612
    8   C8         1.566017375     1.252283448     0.262190663     C.3   1  noname    0.739336
    9   C9         2.761079497     1.245485271     1.226356889     C.3   1  noname   -0.970710
   10   C10        0.741803205    -0.000000392     0.514699343     C.3   1  noname   -0.057223
   11   C11       -0.741745790     0.000003224     0.514502571     C.3   1  noname   -0.056624
   12   O12       -0.000162953    -0.000004969     1.771731352     O.3   1  noname   -0.508507
   13   C13       -1.565942156    -1.252282489     0.261896400     C.3   1  noname    0.737475
   14   C14       -2.760910749    -1.245507354     1.226185052     C.3   1  noname   -0.968015
   15   C15       -3.618296903     0.000065345     0.979499286     C.3   1  noname    0.952881
   16   C16       -4.117551659    -0.000018202    -0.472078059     C.3   1  noname   -0.962494
   17   C17       -2.923023052    -0.000126903    -1.435258906     C.3   1  noname    0.915550
   18   C18       -2.065988748    -1.246941717    -1.190425418     C.3   1  noname   -0.964334
   19   C19       -2.065892391     1.246660422    -1.190618558     C.3   1  noname   -0.964508
   20   C20       -1.565919427     1.252268257     0.261731430     C.3   1  noname    0.737627
   21   C21       -2.760895759     1.245658535     1.226007761     C.3   1  noname   -0.967855
   22   H22        4.745163525    -0.882985058    -0.655308738       H   1  noname    0.192070
   23   H23        4.745169029     0.883102550    -0.655173656       H   1  noname    0.192154
   24   H24        4.476670931    -0.000103094     1.665899114       H   1  noname   -0.071251
   25   H25        2.393064004    -1.260141548     2.259811198       H   1  noname    0.215498
   26   H26        3.357704582    -2.156090591     1.076260713       H   1  noname    0.199659
   27   H27        0.964241820    -2.145949414     0.450941349       H   1  noname   -0.032149
   28   H28        2.654270854    -2.155573770    -1.377779537       H   1  noname    0.207553
   29   H29        1.214730828    -1.263931569    -1.884837847       H   1  noname    0.179372
   30   H30        3.285263385     0.000201177    -2.472655130       H   1  noname   -0.057530
   31   H31        1.214777557     1.264328786    -1.884676339       H   1  noname    0.179388
   32   H32        2.654333130     2.155836028    -1.377450427       H   1  noname    0.207627
   33   H33        0.964268050     2.145949676     0.451262839       H   1  noname   -0.032138
   34   H34        2.392998167     1.259793257     2.259987196       H   1  noname    0.215825
   35   H35        3.357708687     2.155963727     1.076666900       H   1  noname    0.199989
   36   H36       -0.964165198    -2.145957648     0.450855842       H   1  noname   -0.031997
   37   H37       -3.357569355    -2.155959987     1.076485380       H   1  noname    0.199533
   38   H38       -2.392726743    -1.259859827     2.259774364       H   1  noname    0.215332
   39   H39       -4.476392156     0.000122242     1.666020338       H   1  noname   -0.070992
   40   H40       -4.745222589     0.883037738    -0.655175209       H   1  noname    0.191989
   41   H41       -4.745279722    -0.883051440    -0.655069991       H   1  noname    0.191984
   42   H42       -3.285553537    -0.000182156    -2.472725669       H   1  noname   -0.057375
   43   H43       -1.215135634    -1.264461459    -1.885122560       H   1  noname    0.179228
   44   H44       -2.654610282    -2.155832192    -1.377430110       H   1  noname    0.207420
   45   H45       -2.654380071     2.155578362    -1.377913478       H   1  noname    0.207452
   46   H46       -1.214968318     1.263918829    -1.885231129       H   1  noname    0.179254
   47   H47       -0.964146726     2.145977560     0.450543859       H   1  noname   -0.032068
   48   H48       -2.392702651     1.260168053     2.259593578       H   1  noname    0.215285
   49   H49       -3.357545589     2.156100497     1.076181267       H   1  noname    0.199476


@<TRIPOS>BOND
    1      1      2    1
    2      2      3    1
    3      3      4    1
    4      4      5    1
    5      5      6    1
    6      6      7    1
    7      7      8    1
    8      8      9    1
    9      8     10    1
   10     10     11    1
   11     11     12    1
   12     11     13    1
   13     13     14    1
   14     14     15    1
   15     15     16    1
   16     16     17    1
   17     17     18    1
   18     17     19    1
   19     19     20    1
   20     20     21    1
   21      6      1    1
   22      9      2    1
   23     10      4    1
   24     12     10    1
   25     20     11    1
   26     18     13    1
   27     21     15    1
   28      1     22    1
   29      1     23    1
   30      2     24    1
   31      3     25    1
   32      3     26    1
   33      4     27    1
   34      5     28    1
   35      5     29    1
   36      6     30    1
   37      7     31    1
   38      7     32    1
   39      8     33    1
   40      9     34    1
   41      9     35    1
   42     13     36    1
   43     14     37    1
   44     14     38    1
   45     15     39    1
   46     16     40    1
   47     16     41    1
   48     17     42    1
   49     18     43    1
   50     18     44    1
   51     19     45    1
   52     19     46    1
   53     20     47    1
   54     21     48    1
   55     21     49    1
#
#	File Created by: Spartan'20 Export
#

@<TRIPOS>MOLECULE
M0023
26 28
SMALL
USER_CHARGES


@<TRIPOS>ATOM
    1   C1         0.691585494     0.000000463    -1.637672538     C.3   1  noname   -0.878441
    2   C2        -0.809787026    -0.000000007    -1.321440422     C.3   1  noname    0.880735
    3   C3        -1.161522219    -1.248909707    -0.503144001     C.3   1  noname   -0.941040
    4   C4        -0.350987525    -1.253711674     0.800602876     C.3   1  noname    0.736836
    5   C5         1.149461092    -1.250574941     0.484488156     C.3   1  noname   -0.860249
    6   C6         1.498011792    -0.000000090    -0.332448904     C.3   1  noname    0.851454
    7   C7         1.149461232     1.250574861     0.484487986     C.3   1  noname   -0.860249
    8   C8        -0.350987416     1.253711628     0.800602934     C.3   1  noname    0.736836
    9   C9        -1.161522333     1.248909553    -0.503143825     C.3   1  noname   -0.941040
   10   C10       -0.702095126    -0.000000055     1.590153751     C.3   1  noname   -0.271444
   11   F11        0.031912578    -0.000000113     2.795791594       F   1  noname   -0.268139
   12   H12        0.947792800    -0.883208039    -2.239182009       H   1  noname    0.175026
   13   H13        0.947792706     0.883209255    -2.239181813       H   1  noname    0.175026
   14   H14       -1.385383791    -0.000000070    -2.257139103       H   1  noname   -0.055298
   15   H15       -0.938394405    -2.157852128    -1.077377386       H   1  noname    0.205618
   16   H16       -2.238593358    -1.266020900    -0.284749904       H   1  noname    0.183537
   17   H17       -0.607188799    -2.132681184     1.406959154       H   1  noname   -0.030171
   18   H18        1.408958314    -2.157577274    -0.078228993       H   1  noname    0.177740
   19   H19        1.724478697    -1.269802261     1.417137231       H   1  noname    0.192781
   20   H20        2.571940519    -0.000000248    -0.563784383       H   1  noname   -0.062119
   21   H21        1.724479081     1.269802166     1.417136842       H   1  noname    0.192781
   22   H22        1.408958304     2.157577206    -0.078229287       H   1  noname    0.177740
   23   H23       -0.607188732     2.132681014     1.406959383       H   1  noname   -0.030171
   24   H24       -0.938394940     2.157852190    -1.077377060       H   1  noname    0.205619
   25   H25       -2.238593432     1.266020297    -0.284749583       H   1  noname    0.183537
   26   H26       -1.764193505     0.000000059     1.873529305       H   1  noname    0.123096


@<TRIPOS>BOND
    1      1      2    1
    2      2      3    1
    3      3      4    1
    4      4      5    1
    5      5      6    1
    6      6      7    1
    7      7      8    1
    8      8      9    1
    9      8     10    1
   10     10     11    1
   11      6      1    1
   12      9      2    1
   13     10      4    1
   14      1     12    1
   15      1     13    1
   16      2     14    1
   17      3     15    1
   18      3     16    1
   19      4     17    1
   20      5     18    1
   21      5     19    1
   22      6     20    1
   23      7     21    1
   24      7     22    1
   25      8     23    1
   26      9     24    1
   27      9     25    1
   28     10     26    1
#
#	File Created by: Spartan'20 Export
#

@<TRIPOS>MOLECULE
M0024
11 11
SMALL
USER_CHARGES


@<TRIPOS>ATOM
    1   C1        -0.146712276     0.000000000    -0.976406393     C.3   1  noname   -0.005406
    2   C2         0.075670703     1.104325592     0.092551521     C.3   1  noname   -0.495950
    3   C3        -0.026535928     0.000000000     1.151596935     C.2   1  noname    0.759302
    4   O4        -0.208493282     0.000000000     2.352382566     O.2   1  noname   -0.570727
    5   C5         0.075670703    -1.104325592     0.092551521     C.3   1  noname   -0.495950
    6   H6        -1.169152109     0.000000000    -1.361501290       H   1  noname    0.080821
    7   H7         0.546657560     0.000000000    -1.819719432       H   1  noname    0.069318
    8   H8         1.081446678     1.539434307     0.066689263       H   1  noname    0.164869
    9   H9        -0.654999363     1.914896674     0.167583023       H   1  noname    0.164427
   10   H10       -0.654999363    -1.914896674     0.167583023       H   1  noname    0.164427
   11   H11        1.081446678    -1.539434307     0.066689263       H   1  noname    0.164869


@<TRIPOS>BOND
    1      1      2    1
    2      2      3    1
    3      3      4    2
    4      3      5    1
    5      5      1    1
    6      1      6    1
    7      1      7    1
    8      2      8    1
    9      2      9    1
   10      5     10    1
   11      5     11    1
#
#	File Created by: Spartan'20 Export
#

@<TRIPOS>MOLECULE
M0025
12 12
SMALL
USER_CHARGES


@<TRIPOS>ATOM
    1   C1        -0.599772232    -0.779378779    -0.170041676     C.3   1  noname   -0.148950
    2   C2         0.769083897    -0.613209866     0.478076364     C.3   1  noname   -0.351390
    3   C3         1.235211334     0.735825504    -0.046389030     C.2   1  noname    0.851215
    4   O4         2.358562871     1.185284266    -0.086357296     O.2   1  noname   -0.597603
    5   O5         0.146078076     1.438017538    -0.498768472     O.3   1  noname   -0.446926
    6   C6        -1.060211842     0.674082923    -0.270513533     C.3   1  noname    0.022109
    7   H7        -0.496650056    -1.208527080    -1.171069259       H   1  noname    0.106489
    8   H8        -1.293995856    -1.400117133     0.401512855       H   1  noname    0.090328
    9   H9         0.697266146    -0.546921918     1.570362327       H   1  noname    0.138460
   10   H10        1.501669353    -1.384696284     0.235619746       H   1  noname    0.132287
   11   H11       -1.735472503     0.877533394    -1.103087333       H   1  noname    0.108493
   12   H12       -1.521769188     1.022107435     0.660655305       H   1  noname    0.095489


@<TRIPOS>BOND
    1      1      2    1
    2      2      3    1
    3      3      4    2
    4      3      5    1
    5      5      6    1
    6      6      1    1
    7      1      7    1
    8      1      8    1
    9      2      9    1
   10      2     10    1
   11      6     11    1
   12      6     12    1
#
#	File Created by: Spartan'20 Export
#

@<TRIPOS>MOLECULE
M0026
10 10
SMALL
USER_CHARGES


@<TRIPOS>ATOM
    1   C1         0.237847592    -0.747632589    -0.704739112     C.3   1  noname   -0.332486
    2   C2         0.237847592     0.747632589    -0.704739112     C.3   1  noname   -0.332486
    3   C3        -0.572247694     0.000000000     0.333937626     C.3   1  noname   -0.129236
    4   C4        -0.125296503     0.000000000     1.704471494     C.1   1  noname    0.312303
    5   N5         0.254901383     0.000000000     2.824278469     N.1   1  noname   -0.434208
    6   H6        -0.320845569    -1.270535400    -1.473220747       H   1  noname    0.175910
    7   H7         1.129868395    -1.258469236    -0.359472883       H   1  noname    0.196074
    8   H8        -0.320845569     1.270535400    -1.473220747       H   1  noname    0.175910
    9   H9         1.129868395     1.258469236    -0.359472883       H   1  noname    0.196074
   10   H10       -1.651098022     0.000000000     0.212177895       H   1  noname    0.172146


@<TRIPOS>BOND
    1      1      2    1
    2      2      3    1
    3      3      4    1
    4      4      5    3
    5      3      1    1
    6      1      6    1
    7      1      7    1
    8      2      8    1
    9      2      9    1
   10      3     10    1
#
#	File Created by: Spartan'20 Export
#

@<TRIPOS>MOLECULE
M0027
11 11
SMALL
USER_CHARGES


@<TRIPOS>ATOM
    1   C1        -0.819284121    -0.688491064     0.254061856     C.3   1  noname   -0.510045
    2   C2        -0.831775484     0.707184965    -0.326968828     C.3   1  noname   -0.345486
    3   C3         0.349198906     0.243656517     0.463343494     C.3   1  noname    0.342400
    4   N4         1.626116576     0.080593018    -0.195378989     N.3   1  noname   -1.004303
    5   H5        -0.680051281    -1.514236689    -0.437488709       H   1  noname    0.184235
    6   H6        -1.475649944    -0.907610917     1.090413682       H   1  noname    0.175726
    7   H7        -1.494374532     1.448156685     0.106878998       H   1  noname    0.143252
    8   H8        -0.705357488     0.803696726    -1.401578957       H   1  noname    0.166324
    9   H9         0.451794445     0.664637395     1.460352966       H   1  noname    0.078416
   10   H10        1.479363848    -0.095020749    -1.188537402       H   1  noname    0.397161
   11   H11        2.100019075    -0.742565887     0.174901889       H   1  noname    0.372320


@<TRIPOS>BOND
    1      1      2    1
    2      2      3    1
    3      3      4    1
    4      3      1    1
    5      1      5    1
    6      1      6    1
    7      2      7    1
    8      2      8    1
    9      3      9    1
   10      4     10    1
   11      4     11    1
#
#	File Created by: Spartan'20 Export
#

@<TRIPOS>MOLECULE
M0028
14 14
SMALL
USER_CHARGES


@<TRIPOS>ATOM
    1   C1        -1.038270717     0.362240919     0.435706990     C.3   1  noname   -0.309835
    2   C2         0.148385811     1.231614094     0.018449827     C.3   1  noname    0.123365
    3   C3         1.383274110     0.377369520    -0.049141996     C.2   1  noname   -0.428157
    4   C4         1.325419618    -0.963806864    -0.022296723     C.2   1  noname    0.104940
    5   O5         0.176757181    -1.710734853    -0.011338049     O.3   1  noname   -0.385663
    6   C6        -0.996627741    -0.947217519    -0.335119123     C.3   1  noname    0.141795
    7   H7        -0.977953565     0.134446597     1.505295362       H   1  noname    0.144668
    8   H8        -1.992237446     0.870654244     0.256593656       H   1  noname    0.078129
    9   H9         0.292307327     2.046125951     0.738555169       H   1  noname    0.038280
   10   H10       -0.053442179     1.710760918    -0.949246169       H   1  noname    0.041441
   11   H11        2.363740512     0.842845809    -0.079191083       H   1  noname    0.162259
   12   H12        2.202829878    -1.603179253     0.002304254       H   1  noname    0.138917
   13   H13       -0.996217094    -0.750593398    -1.416332341       H   1  noname    0.076750
   14   H14       -1.837965694    -1.600526165    -0.094239774       H   1  noname    0.073110


@<TRIPOS>BOND
    1      1      2    1
    2      2      3    1
    3      3      4    2
    4      4      5    1
    5      5      6    1
    6      6      1    1
    7      1      7    1
    8      1      8    1
    9      2      9    1
   10      2     10    1
   11      3     11    1
   12      4     12    1
   13      6     13    1
   14      6     14    1
#
#	File Created by: Spartan'20 Export
#

@<TRIPOS>MOLECULE
M0029
14 14
SMALL
USER_CHARGES


@<TRIPOS>ATOM
    1   C1        -0.732153244    -0.236719576    -0.939643529     C.3   1  noname   -0.169778
    2   C2         0.732153244     0.236719576    -0.939643529     C.3   1  noname   -0.169778
    3   C3         1.232546554    -0.135364737     0.457973263     C.3   1  noname   -0.336159
    4   C4         0.000000000     0.000000000     1.349924357     C.2   1  noname    0.701107
    5   O5         0.000000000     0.000000000     2.572371686     O.2   1  noname   -0.588296
    6   C6        -1.232546554     0.135364737     0.457973263     C.3   1  noname   -0.336159
    7   H7        -0.766781023    -1.324547658    -1.071990871       H   1  noname    0.101749
    8   H8        -1.322673992     0.210612246    -1.744052896       H   1  noname    0.089587
    9   H9         1.322673991    -0.210612246    -1.744052896       H   1  noname    0.089587
   10   H10        0.766781023     1.324547658    -1.071990871       H   1  noname    0.101749
   11   H11        2.056277636     0.472680558     0.841926895       H   1  noname    0.123086
   12   H12        1.556478721    -1.184158504     0.494639117       H   1  noname    0.135110
   13   H13       -1.556478721     1.184158504     0.494639117       H   1  noname    0.135110
   14   H14       -2.056277636    -0.472680559     0.841926895       H   1  noname    0.123086


@<TRIPOS>BOND
    1      1      2    1
    2      2      3    1
    3      3      4    1
    4      4      5    2
    5      4      6    1
    6      6      1    1
    7      1      7    1
    8      1      8    1
    9      2      9    1
   10      2     10    1
   11      3     11    1
   12      3     12    1
   13      6     13    1
   14      6     14    1
#
#	File Created by: Spartan'20 Export
#

@<TRIPOS>MOLECULE
M0030
17 17
SMALL
USER_CHARGES


@<TRIPOS>ATOM
    1   C1        -0.033670769     0.000000000    -1.385720500     C.3   1  noname   -0.318608
    2   C2         0.343019428     1.259994015    -0.606649931     C.3   1  noname    0.014903
    3   C3        -0.320617225     1.277389980     0.778846995     C.3   1  noname   -0.406054
    4   C4        -0.013852064     0.000000000     1.533917313     C.2   1  noname    0.698671
    5   O5         0.472463864     0.000000000     2.662322397     O.2   1  noname   -0.564487
    6   C6        -0.320617225    -1.277389980     0.778846995     C.3   1  noname   -0.406054
    7   C7         0.343019428    -1.259994015    -0.606649931     C.3   1  noname    0.014903
    8   H8         0.462107924     0.000000000    -2.363444247       H   1  noname    0.089247
    9   H9        -1.115090373     0.000000000    -1.579586096       H   1  noname    0.120056
   10   H10        0.059958895     2.160173115    -1.163838942       H   1  noname    0.054501
   11   H11        1.432971180     1.296112100    -0.481499207       H   1  noname    0.070294
   12   H12       -1.410414769     1.349575019     0.654400461       H   1  noname    0.129667
   13   H13        0.009103200     2.125941362     1.384996190       H   1  noname    0.124249
   14   H14        0.009103200    -2.125941362     1.384996190       H   1  noname    0.124249
   15   H15       -1.410414769    -1.349575019     0.654400461       H   1  noname    0.129667
   16   H16        0.059958895    -2.160173115    -1.163838942       H   1  noname    0.054501
   17   H17        1.432971180    -1.296112100    -0.481499207       H   1  noname    0.070294


@<TRIPOS>BOND
    1      1      2    1
    2      2      3    1
    3      3      4    1
    4      4      5    2
    5      4      6    1
    6      6      7    1
    7      7      1    1
    8      1      8    1
    9      1      9    1
   10      2     10    1
   11      2     11    1
   12      3     12    1
   13      3     13    1
   14      6     14    1
   15      6     15    1
   16      7     16    1
   17      7     17    1
#
#	File Created by: Spartan'20 Export
#

@<TRIPOS>MOLECULE
M0031
18 18
SMALL
USER_CHARGES


@<TRIPOS>ATOM
    1   C1        -0.829535072    -1.185719991     0.071393241     C.3   1  noname   -0.207016
    2   C2         0.604178877    -1.229018723    -0.451807173     C.3   1  noname   -0.003596
    3   C3         1.535782638    -0.194880831     0.200386581     C.3   1  noname   -0.404443
    4   C4         1.408298524     1.181465227    -0.416996167     C.2   1  noname    0.822632
    5   O5         2.287021882     1.689126503    -1.088540168     O.2   1  noname   -0.584574
    6   O6         0.241213240     1.869735357    -0.252012746     O.3   1  noname   -0.464954
    7   C7        -0.838433403     1.332864814     0.537532261     C.3   1  noname    0.047126
    8   C8        -1.536473021     0.153546336    -0.123634629     C.3   1  noname   -0.094318
    9   H9        -1.414212689    -1.974494963    -0.416881601       H   1  noname    0.069686
   10   H10       -0.820040340    -1.427230977     1.143263970       H   1  noname    0.085575
   11   H11        0.615094116    -1.086920245    -1.539827528       H   1  noname    0.077306
   12   H12        1.016043140    -2.227428287    -0.266033770       H   1  noname    0.056639
   13   H13        1.357652562    -0.155510531     1.282123888       H   1  noname    0.143784
   14   H14        2.580507474    -0.474768564     0.049569268       H   1  noname    0.126086
   15   H15       -1.521939437     2.180017332     0.624052842       H   1  noname    0.099510
   16   H16       -0.487936328     1.081143369     1.546104036       H   1  noname    0.078636
   17   H17       -1.647064482     0.384247972    -1.190059857       H   1  noname    0.100680
   18   H18       -2.550157682     0.083826203     0.291367554       H   1  noname    0.051242


@<TRIPOS>BOND
    1      1      2    1
    2      2      3    1
    3      3      4    1
    4      4      5    2
    5      4      6    1
    6      6      7    1
    7      7      8    1
    8      8      1    1
    9      1      9    1
   10      1     10    1
   11      2     11    1
   12      2     12    1
   13      3     13    1
   14      3     14    1
   15      7     15    1
   16      7     16    1
   17      8     17    1
   18      8     18    1
#
#	File Created by: Spartan'20 Export
#

@<TRIPOS>MOLECULE
M0032
19 19
SMALL
USER_CHARGES


@<TRIPOS>ATOM
    1   C1         0.544421807    -1.037572838     1.061199070     C.3   1  noname   -0.068061
    2   C2        -0.957973706    -0.820340634     0.881380316     C.3   1  noname   -0.239136
    3   C3        -1.391417591    -0.525439771    -0.564669952     C.3   1  noname    0.098385
    4   C4        -1.220353469     0.926353203    -0.943188234     C.2   1  noname   -0.001317
    5   S5        -2.507628698     1.929839178    -1.214556932     S.2   1  noname   -0.372726
    6   N6         0.053573584     1.370539412    -1.008306975   N.pl3   1  noname   -0.236459
    7   C7         1.272083625     0.608975270    -0.758669793     C.3   1  noname   -0.038297
    8   C8         1.424454030     0.155287679     0.692817469     C.3   1  noname   -0.116853
    9   H9         0.849755218    -1.900170792     0.452657400       H   1  noname    0.051748
   10   H10        0.742001244    -1.313086182     2.104352739       H   1  noname    0.050834
   11   H11       -1.305439188    -0.005778009     1.529030302       H   1  noname    0.127627
   12   H12       -1.477553219    -1.725959446     1.216019126       H   1  noname    0.078254
   13   H13       -0.825710084    -1.163332207    -1.259095893       H   1  noname    0.081984
   14   H14       -2.448097879    -0.763018820    -0.694312905       H   1  noname    0.022438
   15   H15        0.145730410     2.357117649    -1.233041885       H   1  noname    0.258727
   16   H16        1.319855475    -0.254854184    -1.434713938       H   1  noname    0.087436
   17   H17        2.099282691     1.270206506    -1.032361671       H   1  noname    0.083286
   18   H18        1.208032743     1.007916742     1.347595313       H   1  noname    0.083958
   19   H19        2.474983005    -0.116682755     0.857866443       H   1  noname    0.048173


@<TRIPOS>BOND
    1      1      2    1
    2      2      3    1
    3      3      4    1
    4      4      5    2
    5      4      6    1
    6      6      7    1
    7      7      8    1
    8      8      1    1
    9      1      9    1
   10      1     10    1
   11      2     11    1
   12      2     12    1
   13      3     13    1
   14      3     14    1
   15      6     15    1
   16      7     16    1
   17      7     17    1
   18      8     18    1
   19      8     19    1
#
#	File Created by: Spartan'20 Export
#

@<TRIPOS>MOLECULE
M0033
18 18
SMALL
USER_CHARGES


@<TRIPOS>ATOM
    1   C1        -0.301238039     0.000000000     1.463621335     C.3   1  noname   -0.152025
    2   C2         0.199875655    -1.260881418     0.757647820     C.3   1  noname   -0.179432
    3   C3        -0.189771504    -1.255996885    -0.722399639     C.3   1  noname   -0.263923
    4   C4         0.319422917     0.000000000    -1.400455722     C.3   1  noname    0.397314
    5   C5        -0.189771504     1.255996885    -0.722399639     C.3   1  noname   -0.263923
    6   C6         0.199875655     1.260881418     0.757647820     C.3   1  noname   -0.179432
    7   F7        -0.108614940     0.000000000    -2.740879129       F   1  noname   -0.353068
    8   H8         0.017963621     0.000000000     2.512110416       H   1  noname    0.070504
    9   H9        -1.399089728     0.000000000     1.466559517       H   1  noname    0.094811
   10   H10       -0.196483259    -2.158431371     1.244766316       H   1  noname    0.085426
   11   H11        1.293183998    -1.314431523     0.846335571       H   1  noname    0.091724
   12   H12       -1.281715483    -1.276296819    -0.825320820       H   1  noname    0.122498
   13   H13        0.201841127    -2.137278053    -1.241482127       H   1  noname    0.093972
   14   H14        1.417695101     0.000000000    -1.420050661       H   1  noname    0.041933
   15   H15        0.201841127     2.137278053    -1.241482127       H   1  noname    0.093972
   16   H16       -1.281715483     1.276296819    -0.825320820       H   1  noname    0.122498
   17   H17       -0.196483259     2.158431371     1.244766316       H   1  noname    0.085426
   18   H18        1.293183998     1.314431523     0.846335571       H   1  noname    0.091724


@<TRIPOS>BOND
    1      1      2    1
    2      2      3    1
    3      3      4    1
    4      4      5    1
    5      5      6    1
    6      4      7    1
    7      6      1    1
    8      1      8    1
    9      1      9    1
   10      2     10    1
   11      2     11    1
   12      3     12    1
   13      3     13    1
   14      4     14    1
   15      5     15    1
   16      5     16    1
   17      6     17    1
   18      6     18    1
#
#	File Created by: Spartan'20 Export
#

@<TRIPOS>MOLECULE
M0034
20 20
SMALL
USER_CHARGES


@<TRIPOS>ATOM
    1   C1        -1.597597462     0.407336738     0.634010987     C.3   1  noname   -0.196591
    2   C2        -1.436516330    -0.704888660    -0.400170724     C.3   1  noname   -0.152375
    3   C3        -0.057157749    -1.374353999    -0.264919489     C.3   1  noname   -0.301683
    4   C4         1.021504041    -0.405192967     0.242887308     C.3   1  noname    0.628499
    5   C5         0.717407004     1.009716178    -0.253177771     C.3   1  noname   -0.367326
    6   C6        -0.592155781     1.541349880     0.360757970     C.3   1  noname   -0.112116
    7   N7         2.338935894    -0.937119507    -0.122408625     N.3   1  noname   -1.073041
    8   H8        -1.432004159    -0.011457110     1.634390253       H   1  noname    0.083917
    9   H9        -2.620470068     0.800784028     0.630971949       H   1  noname    0.075961
   10   H10       -1.548507388    -0.272070019    -1.402254298       H   1  noname    0.089301
   11   H11       -2.230995897    -1.452630725    -0.299579800       H   1  noname    0.078079
   12   H12        0.262779452    -1.769094751    -1.238374435       H   1  noname    0.101185
   13   H13       -0.104935931    -2.234095789     0.411987503       H   1  noname    0.090583
   14   H14        0.995344506    -0.389068266     1.341199707       H   1  noname    0.005026
   15   H15        0.645320508     0.980458268    -1.349470386       H   1  noname    0.103468
   16   H16        1.551789133     1.681636795    -0.016026759       H   1  noname    0.078626
   17   H17       -0.374587188     2.072236902     1.294695347       H   1  noname    0.060130
   18   H18       -1.039541621     2.278434494    -0.315969056       H   1  noname    0.082348
   19   H19        2.434999249    -0.896849616    -1.138342315       H   1  noname    0.363737
   20   H20        3.066389788    -0.325131873     0.249792634       H   1  noname    0.362271


@<TRIPOS>BOND
    1      1      2    1
    2      2      3    1
    3      3      4    1
    4      4      5    1
    5      5      6    1
    6      4      7    1
    7      6      1    1
    8      1      8    1
    9      1      9    1
   10      2     10    1
   11      2     11    1
   12      3     12    1
   13      3     13    1
   14      4     14    1
   15      5     15    1
   16      5     16    1
   17      6     17    1
   18      6     18    1
   19      7     19    1
   20      7     20    1
#
#	File Created by: Spartan'20 Export
#

@<TRIPOS>MOLECULE
M0035
19 19
SMALL
USER_CHARGES


@<TRIPOS>ATOM
    1   C1        -1.043920104    -0.541428171     0.868670053     C.3   1  noname   -0.346477
    2   C2        -1.256968177     0.808464269     0.186310120     C.3   1  noname    0.063596
    3   C3         0.084834453     1.513112678    -0.066273124     C.3   1  noname   -0.487697
    4   C4         1.220272242     0.533276481    -0.425237877     C.3   1  noname    0.604596
    5   C5         0.651078586    -0.737725024    -1.045232706     C.3   1  noname   -0.508400
    6   C6        -0.242042514    -1.494483759    -0.044315034     C.3   1  noname    0.034776
    7   O7         2.051831628     0.222758440     0.703922765     O.3   1  noname   -0.751449
    8   H8        -0.520975315    -0.375717016     1.821083425       H   1  noname    0.103562
    9   H9        -2.002766445    -0.996817991     1.139178049       H   1  noname    0.097462
   10   H10       -1.912017868     1.449309530     0.787063147       H   1  noname    0.042753
   11   H11       -1.777904760     0.643095610    -0.765086411       H   1  noname    0.062495
   12   H12        0.403533102     2.068672707     0.823125597       H   1  noname    0.140323
   13   H13       -0.033184366     2.249825693    -0.870024604       H   1  noname    0.105890
   14   H14        1.913276074     1.013787479    -1.122787154       H   1  noname    0.011451
   15   H15        0.069154952    -0.460268829    -1.933103953       H   1  noname    0.138420
   16   H16        1.469021493    -1.380327365    -1.386439177       H   1  noname    0.133566
   17   H17        0.370367999    -2.170567349     0.562592008       H   1  noname    0.043384
   18   H18       -0.933183166    -2.135744368    -0.601918136       H   1  noname    0.063674
   19   H19        1.489592186    -0.209223013     1.368473012       H   1  noname    0.448076


@<TRIPOS>BOND
    1      1      2    1
    2      2      3    1
    3      3      4    1
    4      4      5    1
    5      5      6    1
    6      4      7    1
    7      6      1    1
    8      1      8    1
    9      1      9    1
   10      2     10    1
   11      2     11    1
   12      3     12    1
   13      3     13    1
   14      4     14    1
   15      5     15    1
   16      5     16    1
   17      6     17    1
   18      6     18    1
   19      7     19    1
#
#	File Created by: Spartan'20 Export
#

@<TRIPOS>MOLECULE
M0036
17 18
SMALL
USER_CHARGES


@<TRIPOS>ATOM
    1   C1        -0.439874881    -0.774946028    -1.111848876     C.3   1  noname   -0.125531
    2   C2        -0.440494848     0.774968826    -1.111334604     C.3   1  noname   -0.119850
    3   C3         0.379352206     1.420293252     0.012000332     C.3   1  noname   -0.083295
    4   C4         0.140069671     0.731025918     1.332869931     C.3   1  noname    0.006065
    5   C5         0.139706879    -0.730912325     1.332937992     C.3   1  noname    0.006761
    6   C6         0.378974048    -1.420451356     0.012233403     C.3   1  noname   -0.083543
    7   O7        -1.105514968     0.000344382     1.466887889     O.3   1  noname   -0.349326
    8   H8        -1.471012510    -1.123291444    -1.011343763       H   1  noname    0.086840
    9   H9        -0.074111290    -1.156143794    -2.071490941       H   1  noname    0.051386
   10   H10       -1.471659617     1.122500196    -1.008911625       H   1  noname    0.085595
   11   H11       -0.076478937     1.157061976    -2.071266937       H   1  noname    0.050157
   12   H12        0.129845984     2.485414815     0.081654581       H   1  noname    0.065585
   13   H13        1.455308893     1.367253781    -0.205859307       H   1  noname    0.063302
   14   H14        0.436024744     1.262356021     2.238248952       H   1  noname    0.108247
   15   H15        0.435953259    -1.261965662     2.238308596       H   1  noname    0.108060
   16   H16        1.455063349    -1.368087678    -0.205102805       H   1  noname    0.063426
   17   H17        0.128848017    -2.485420880     0.082017182       H   1  noname    0.066122


@<TRIPOS>BOND
    1      1      2    1
    2      2      3    1
    3      3      4    1
    4      4      5    1
    5      5      6    1
    6      5      7    1
    7      6      1    1
    8      7      4    1
    9      1      8    1
   10      1      9    1
   11      2     10    1
   12      2     11    1
   13      3     12    1
   14      3     13    1
   15      4     14    1
   16      5     15    1
   17      6     16    1
   18      6     17    1
#
#	File Created by: Spartan'20 Export
#

@<TRIPOS>MOLECULE
M0037
16 16
SMALL
USER_CHARGES


@<TRIPOS>ATOM
    1   C1        -0.689472911    -0.327793442    -1.079031846     C.3   1  noname   -0.155394
    2   C2         0.689487057     0.327809300    -1.079014559     C.3   1  noname   -0.155377
    3   C3         1.493302746    -0.124196103     0.139963921     C.3   1  noname   -0.042203
    4   C4         0.668197400    -0.063669991     1.396888463     C.2   1  noname   -0.209008
    5   C5        -0.668187662     0.063719283     1.396881582     C.2   1  noname   -0.208972
    6   C6        -1.493306392     0.124160514     0.139967295     C.3   1  noname   -0.042198
    7   H7        -1.233399343    -0.093044962    -2.000779137       H   1  noname    0.055074
    8   H8        -0.567515630    -1.417756969    -1.048141950       H   1  noname    0.098235
    9   H9         1.233422260     0.093110509    -2.000764280       H   1  noname    0.055071
   10   H10        0.567529309     1.417765154    -1.048076070       H   1  noname    0.098231
   11   H11        2.388289396     0.499714346     0.256567845       H   1  noname    0.054012
   12   H12        1.861384147    -1.149104183    -0.012330013       H   1  noname    0.070687
   13   H13        1.197233619    -0.127309807     2.346784941       H   1  noname    0.128579
   14   H14       -1.197228558     0.127429251     2.346771114       H   1  noname    0.128569
   15   H15       -1.861509224     1.149027462    -0.012291611       H   1  noname    0.070687
   16   H16       -2.388226214    -0.499860362     0.256604306       H   1  noname    0.054006


@<TRIPOS>BOND
    1      1      2    1
    2      2      3    1
    3      3      4    1
    4      4      5    2
    5      5      6    1
    6      6      1    1
    7      1      7    1
    8      1      8    1
    9      2      9    1
   10      2     10    1
   11      3     11    1
   12      3     12    1
   13      4     13    1
   14      5     14    1
   15      6     15    1
   16      6     16    1
#
#	File Created by: Spartan'20 Export
#

@<TRIPOS>MOLECULE
M0038
20 20
SMALL
USER_CHARGES


@<TRIPOS>ATOM
    1   C1        -2.206484036    -0.269325238     0.077198116     C.3   1  noname   -0.052695
    2   C2        -1.693015674     0.907159655    -0.786993905     C.3   1  noname   -0.309888
    3   C3        -0.173543105     0.707209240    -0.842515883     C.3   1  noname    0.061303
    4   N4         0.111622867    -0.039029596     0.388433742     N.3   1  noname   -0.296459
    5   C5        -0.940029315    -1.059174402     0.414059095     C.3   1  noname   -0.173521
    6   C6         1.435645026    -0.635551397     0.455655778     C.3   1  noname   -0.139715
    7   C7         2.544344719     0.369332055     0.724507859     C.3   1  noname   -0.194933
    8   Cl8        3.125140993     1.219186072    -0.742531406      Cl   1  noname   -0.182545
    9   H9        -2.675003922     0.100776235     0.992525156       H   1  noname    0.073498
   10   H10       -2.942088860    -0.888291435    -0.443858661       H   1  noname    0.064919
   11   H11       -2.130192730     0.915234584    -1.789070995       H   1  noname    0.104327
   12   H12       -1.933633566     1.863716465    -0.316789135       H   1  noname    0.113784
   13   H13        0.381928152     1.645646097    -0.873461188       H   1  noname    0.088992
   14   H14        0.111370412     0.118450400    -1.735141559       H   1  noname    0.065497
   15   H15       -0.975616547    -1.548297431     1.393375261       H   1  noname    0.110551
   16   H16       -0.757922794    -1.840308354    -0.349492132       H   1  noname    0.097895
   17   H17        1.430944317    -1.325864873     1.309140863       H   1  noname    0.130311
   18   H18        1.677512457    -1.231891294    -0.444656163       H   1  noname    0.120645
   19   H19        2.191694386     1.125751651     1.426835131       H   1  noname    0.167742
   20   H20        3.417327219    -0.134728434     1.142780025       H   1  noname    0.150290


@<TRIPOS>BOND
    1      1      2    1
    2      2      3    1
    3      3      4    1
    4      4      5    1
    5      4      6    1
    6      6      7    1
    7      7      8    1
    8      5      1    1
    9      1      9    1
   10      1     10    1
   11      2     11    1
   12      2     12    1
   13      3     13    1
   14      3     14    1
   15      5     15    1
   16      5     16    1
   17      6     17    1
   18      6     18    1
   19      7     19    1
   20      7     20    1
#
#	File Created by: Spartan'20 Export
#

@<TRIPOS>MOLECULE
M0039
14 14
SMALL
USER_CHARGES


@<TRIPOS>ATOM
    1   C1         0.890041957    -0.774085673    -0.069879835     C.3   1  noname   -0.150891
    2   C2         0.889927578     0.774123560    -0.070520999     C.3   1  noname   -0.149918
    3   C3        -0.584938010     1.149018279     0.200348159     C.3   1  noname    0.101081
    4   N4        -1.401854997     0.000114485    -0.215744215     N.3   1  noname   -0.805268
    5   C5        -0.585094174    -1.149075668     0.199923120     C.3   1  noname    0.103193
    6   H6         1.565091962    -1.193660350     0.681640738       H   1  noname    0.054705
    7   H7         1.209661738    -1.161124120    -1.042143697       H   1  noname    0.066017
    8   H8         1.565775799     1.194520230     0.679845007       H   1  noname    0.054405
    9   H9         1.208312918     1.160357361    -1.043547556       H   1  noname    0.066076
   10   H10       -0.908067168     2.058128170    -0.314442938       H   1  noname    0.048618
   11   H11       -0.747834273     1.299887937     1.273455327       H   1  noname    0.085096
   12   H12       -1.444497974     0.000344319    -1.236023738       H   1  noname    0.394703
   13   H13       -0.748549861    -1.300766332     1.272811411       H   1  noname    0.083844
   14   H14       -0.907975496    -2.057782196    -0.315720784       H   1  noname    0.048338


@<TRIPOS>BOND
    1      1      2    1
    2      2      3    1
    3      3      4    1
    4      4      5    1
    5      5      1    1
    6      1      6    1
    7      1      7    1
    8      2      8    1
    9      2      9    1
   10      3     10    1
   11      3     11    1
   12      4     12    1
   13      5     13    1
   14      5     14    1
#
#	File Created by: Spartan'20 Export
#

@<TRIPOS>MOLECULE
M0040
17 17
SMALL
USER_CHARGES


@<TRIPOS>ATOM
    1   C1         0.181986216     0.000002941    -1.370056115     C.3   1  noname   -0.022470
    2   C2        -0.282421344    -1.256782082    -0.633777505     C.3   1  noname   -0.256573
    3   C3         0.152640402    -1.207112855     0.826186866     C.3   1  noname    0.094690
    4   N4        -0.395493547     0.000001472     1.447159831     N.3   1  noname   -0.697560
    5   C5         0.152646046     1.207110709     0.826180679     C.3   1  noname    0.094688
    6   C6        -0.282426208     1.256784714    -0.633778043     C.3   1  noname   -0.256578
    7   H7        -0.185556812    -0.000001635    -2.402483476       H   1  noname    0.042692
    8   H8         1.279027467     0.000007169    -1.424515961       H   1  noname    0.064501
    9   H9        -1.375743781    -1.322088968    -0.667458695       H   1  noname    0.126572
   10   H10        0.119212291    -2.157222586    -1.113395184       H   1  noname    0.069087
   11   H11        1.258131202    -1.243696622     0.873319731       H   1  noname    0.046045
   12   H12       -0.228062950    -2.078599535     1.369352000       H   1  noname    0.060385
   13   H13       -0.167481049     0.000004925     2.441457852       H   1  noname    0.332426
   14   H14        1.258135899     1.243686510     0.873296852       H   1  noname    0.046046
   15   H15       -0.228039963     2.078597282     1.369356516       H   1  noname    0.060385
   16   H16        0.119193060     2.157228712    -1.113399192       H   1  noname    0.069090
   17   H17       -1.375746928     1.322079849    -0.667446157       H   1  noname    0.126573


@<TRIPOS>BOND
    1      1      2    1
    2      2      3    1
    3      3      4    1
    4      4      5    1
    5      5      6    1
    6      6      1    1
    7      1      7    1
    8      1      8    1
    9      2      9    1
   10      2     10    1
   11      3     11    1
   12      3     12    1
   13      4     13    1
   14      5     14    1
   15      5     15    1
   16      6     16    1
   17      6     17    1
#
#	File Created by: Spartan'20 Export
#

@<TRIPOS>MOLECULE
M0041
15 15
SMALL
USER_CHARGES


@<TRIPOS>ATOM
    1   C1         0.335995405    -1.155067409    -0.248068058     C.3   1  noname    0.117075
    2   C2        -1.007046622    -0.514784798    -0.651048006     C.3   1  noname   -0.309541
    3   C3        -1.251741617     0.752619046     0.148102600     C.3   1  noname    0.160057
    4   O4        -0.187164059     1.696594483    -0.098304684     O.3   1  noname   -0.494684
    5   C5         1.086226354     1.235919302     0.099871025     C.2   1  noname    0.859685
    6   O6         2.031404231     1.966857214    -0.121151565     O.2   1  noname   -0.593260
    7   C7         1.179589310    -0.186820042     0.600892338     C.3   1  noname   -0.422767
    8   H8         0.900887319    -1.435554896    -1.141760088       H   1  noname    0.035218
    9   H9         0.176418172    -2.075404209     0.322725768       H   1  noname    0.030592
   10   H10       -0.994813362    -0.235746948    -1.709034364       H   1  noname    0.125796
   11   H11       -1.842266315    -1.209131457    -0.510308513       H   1  noname    0.086321
   12   H12       -2.158271118     1.270195808    -0.167916872       H   1  noname    0.087366
   13   H13       -1.329643971     0.551533838     1.222963526       H   1  noname    0.057359
   14   H14        2.234913389    -0.463871212     0.614227008       H   1  noname    0.124411
   15   H15        0.825512885    -0.197338722     1.638809884       H   1  noname    0.136374


@<TRIPOS>BOND
    1      1      2    1
    2      2      3    1
    3      3      4    1
    4      4      5    1
    5      5      6    2
    6      5      7    1
    7      7      1    1
    8      1      8    1
    9      1      9    1
   10      2     10    1
   11      2     11    1
   12      3     12    1
   13      3     13    1
   14      7     14    1
   15      7     15    1
#
#	File Created by: Spartan'20 Export
#

@<TRIPOS>MOLECULE
M0042
13 13
SMALL
USER_CHARGES


@<TRIPOS>ATOM
    1   C1         0.239234437    -0.725281840    -0.750991220     C.3   1  noname   -0.207345
    2   C2        -0.239226784     0.725273086    -0.750990208     C.3   1  noname   -0.207333
    3   C3         0.143858126     1.163173982     0.658768046     C.3   1  noname    0.134894
    4   O4         0.000062783    -0.000009542     1.489927958     O.3   1  noname   -0.471233
    5   C5        -0.143857236    -1.163171960     0.658765059     C.3   1  noname    0.134885
    6   H6        -0.222056772    -1.341615519    -1.527693240       H   1  noname    0.078677
    7   H7         1.325945483    -0.764665551    -0.879959591       H   1  noname    0.109444
    8   H8        -1.325937106     0.764653009    -0.879966494       H   1  noname    0.109437
    9   H9         0.222063581     1.341609213    -1.527690792       H   1  noname    0.078674
   10   H10       -0.495665532     1.955166481     1.060896962       H   1  noname    0.056997
   11   H11        1.186535358     1.508546969     0.694023065       H   1  noname    0.062948
   12   H12       -1.186563147    -1.508460119     0.694030447       H   1  noname    0.062949
   13   H13        0.495606809    -1.955218209     1.060880008       H   1  noname    0.057004


@<TRIPOS>BOND
    1      1      2    1
    2      2      3    1
    3      3      4    1
    4      4      5    1
    5      5      1    1
    6      1      6    1
    7      1      7    1
    8      2      8    1
    9      2      9    1
   10      3     10    1
   11      3     11    1
   12      5     12    1
   13      5     13    1
#
#	File Created by: Spartan'20 Export
#

@<TRIPOS>MOLECULE
M0043
16 16
SMALL
USER_CHARGES


@<TRIPOS>ATOM
    1   C1         0.080198818    -1.089218599    -0.639300823     C.3   1  noname   -0.089693
    2   C2         1.139806817    -0.528145141     0.305574618     C.3   1  noname   -0.159976
    3   C3         1.195831950     0.998749963     0.136175411     C.3   1  noname    0.003779
    4   O4        -0.038688373     1.532463879    -0.353020840     O.3   1  noname   -0.410432
    5   C5        -1.142778841     0.894062848     0.285125029     C.3   1  noname    0.065040
    6   C6        -1.297804910    -0.541454226    -0.238469851     C.3   1  noname   -0.161498
    7   H7         0.314876605    -0.777848992    -1.662397828       H   1  noname    0.097366
    8   H8         0.079273903    -2.184040402    -0.628217987       H   1  noname    0.045077
    9   H9         2.127112465    -0.959886907     0.108768052       H   1  noname    0.063721
   10   H10        0.880738112    -0.794090878     1.337364603       H   1  noname    0.088567
   11   H11        1.463716048     1.490226860     1.084443627       H   1  noname    0.066574
   12   H12        1.939939273     1.278872990    -0.614886766       H   1  noname    0.105129
   13   H13       -0.999521319     0.903527308     1.376917294       H   1  noname    0.070128
   14   H14       -2.019803482     1.506754527     0.062144512       H   1  noname    0.079928
   15   H15       -1.973091537    -0.560924747    -1.099942847       H   1  noname    0.075531
   16   H16       -1.749805529    -1.169048483     0.539723797       H   1  noname    0.060758


@<TRIPOS>BOND
    1      1      2    1
    2      2      3    1
    3      3      4    1
    4      4      5    1
    5      5      6    1
    6      6      1    1
    7      1      7    1
    8      1      8    1
    9      2      9    1
   10      2     10    1
   11      3     11    1
   12      3     12    1
   13      5     13    1
   14      5     14    1
   15      6     15    1
   16      6     16    1
#
#	File Created by: Spartan'20 Export
#

@<TRIPOS>MOLECULE
M0044
15 15
SMALL
USER_CHARGES


@<TRIPOS>ATOM
    1   C1        -0.755408697    -0.138308437    -1.058469874     C.3   1  noname   -0.191178
    2   C2         0.755359551     0.138192039    -1.058535080     C.3   1  noname   -0.191581
    3   C3         1.285442120    -0.398199122     0.270081212     C.3   1  noname   -0.328421
    4   S4        -0.000037856    -0.000073781     1.485585682       S   1  noname    1.253628
    5   O5         0.376258062     1.224674900     2.208022746     O.2   1  noname   -0.652926
    6   O6        -0.376402716    -1.225106097     2.207562175     O.2   1  noname   -0.652923
    7   C7        -1.285347197     0.398387644     0.270063284     C.3   1  noname   -0.327903
    8   H8        -1.260486304     0.332733645    -1.905884120       H   1  noname    0.117588
    9   H9        -0.932994180    -1.217202910    -1.122535591       H   1  noname    0.120530
   10   H10        1.260441700    -0.332942953    -1.905891033       H   1  noname    0.117745
   11   H11        0.932790746     1.217098854    -1.122783891       H   1  noname    0.120607
   12   H12        1.386955875    -1.486160083     0.258427747       H   1  noname    0.154084
   13   H13        2.217090321     0.059535024     0.608037552       H   1  noname    0.153505
   14   H14       -2.217150316    -0.059014779     0.608059490       H   1  noname    0.153338
   15   H15       -1.386511109     1.486386057     0.258259700       H   1  noname    0.153906


@<TRIPOS>BOND
    1      1      2    1
    2      2      3    1
    3      3      4    1
    4      4      5    2
    5      4      6    2
    6      4      7    1
    7      7      1    1
    8      1      8    1
    9      1      9    1
   10      2     10    1
   11      2     11    1
   12      3     12    1
   13      3     13    1
   14      7     14    1
   15      7     15    1
#
#	File Created by: Spartan'20 Export
#

@<TRIPOS>MOLECULE
M0045
14 14
SMALL
USER_CHARGES


@<TRIPOS>ATOM
    1   C1         0.671995783    -0.899706684    -0.220055388     C.3   1  noname   -0.141361
    2   C2        -0.730215202    -0.851797612     0.393938110     C.3   1  noname   -0.182019
    3   C3        -1.259952663     0.583849866     0.211108596     C.3   1  noname   -0.122209
    4   S4         0.106220829     1.676239832    -0.363636800       S   1  noname    0.299314
    5   O5         0.094947734     1.624371457    -1.878812215     O.2   1  noname   -0.527460
    6   C6         1.312954026     0.422312086     0.174057399     C.3   1  noname   -0.230221
    7   H7         0.609197336    -0.939226744    -1.311594309       H   1  noname    0.131823
    8   H8         1.249292759    -1.762117867     0.126224184       H   1  noname    0.078562
    9   H9        -0.667270316    -1.090175497     1.461160282       H   1  noname    0.100890
   10   H10       -1.401978684    -1.581962429    -0.066198937       H   1  noname    0.088737
   11   H11       -1.685958578     1.003173812     1.128388120       H   1  noname    0.076639
   12   H12       -2.003767050     0.666416133    -0.586668748       H   1  noname    0.144742
   13   H13        2.259722424     0.639220512    -0.328268068       H   1  noname    0.158008
   14   H14        1.444811602     0.509403133     1.260357774       H   1  noname    0.124555


@<TRIPOS>BOND
    1      1      2    1
    2      2      3    1
    3      3      4    1
    4      4      5    2
    5      4      6    1
    6      6      1    1
    7      1      7    1
    8      1      8    1
    9      2      9    1
   10      2     10    1
   11      3     11    1
   12      3     12    1
   13      6     13    1
   14      6     14    1
#
#	File Created by: Spartan'20 Export
#

@<TRIPOS>MOLECULE
M0046
13 13
SMALL
USER_CHARGES


@<TRIPOS>ATOM
    1   C1        -0.710906751     0.276924570    -0.710656027     C.3   1  noname   -0.246906
    2   C2         0.710893548    -0.276903608    -0.710656640     C.3   1  noname   -0.246897
    3   C3         1.329481779     0.145083622     0.620858729     C.3   1  noname   -0.068488
    4   S4        -0.000015244     0.000095397     1.871811127     S.3   1  noname   -0.244307
    5   C5        -1.329475971    -0.145092464     0.620855110     C.3   1  noname   -0.068541
    6   H6        -0.678970107     1.370206551    -0.775313053       H   1  noname    0.132365
    7   H7        -1.301666369    -0.094027490    -1.554862813       H   1  noname    0.104464
    8   H8         1.301662706     0.094044959    -1.554858831       H   1  noname    0.104459
    9   H9         0.678940213    -1.370184915    -0.775329154       H   1  noname    0.132362
   10   H10        1.679066124     1.180004775     0.575310061       H   1  noname    0.101630
   11   H11        2.168941196    -0.491735079     0.908770588       H   1  noname    0.099097
   12   H12       -1.678942143    -1.180055072     0.575323479       H   1  noname    0.101640
   13   H13       -2.169008982     0.491638754     0.908747424       H   1  noname    0.099122


@<TRIPOS>BOND
    1      1      2    1
    2      2      3    1
    3      3      4    1
    4      4      5    1
    5      5      1    1
    6      1      6    1
    7      1      7    1
    8      2      8    1
    9      2      9    1
   10      3     10    1
   11      3     11    1
   12      5     12    1
   13      5     13    1
#
#	File Created by: Spartan'20 Export
#

@<TRIPOS>MOLECULE
M0047
16 16
SMALL
USER_CHARGES


@<TRIPOS>ATOM
    1   C1        -0.206444319    -1.201080881    -0.130692285     C.3   1  noname   -0.047931
    2   C2         1.259303439    -0.744738370    -0.048052910     C.3   1  noname   -0.196002
    3   C3         1.393520036     0.746365705     0.281558947     C.3   1  noname   -0.092848
    4   S4         0.155027412     1.295040706     1.487106214     S.3   1  noname   -0.273116
    5   C5        -1.326983479     0.998194811     0.453812705     C.3   1  noname    0.030977
    6   C6        -1.114847527    -0.075853523    -0.622915173     C.3   1  noname   -0.293466
    7   H7        -0.551464747    -1.518862936     0.858859873       H   1  noname    0.065389
    8   H8        -0.286174216    -2.073986384    -0.787068895       H   1  noname    0.056980
    9   H9         1.761745266    -0.929060606    -1.006125263       H   1  noname    0.073914
   10   H10        1.785132023    -1.337224408     0.707820982       H   1  noname    0.087286
   11   H11        2.372241425     0.965791260     0.718444149       H   1  noname    0.128622
   12   H12        1.306150138     1.359084245    -0.620918976       H   1  noname    0.086733
   13   H13       -2.109368932     0.673152019     1.146479711       H   1  noname    0.104305
   14   H14       -1.654762061     1.938291285    -0.000543050       H   1  noname    0.043102
   15   H15       -0.686695517     0.374016146    -1.526290607       H   1  noname    0.140303
   16   H16       -2.096378941    -0.469129071    -0.911475421       H   1  noname    0.085751


@<TRIPOS>BOND
    1      1      2    1
    2      2      3    1
    3      3      4    1
    4      4      5    1
    5      5      6    1
    6      6      1    1
    7      1      7    1
    8      1      8    1
    9      2      9    1
   10      2     10    1
   11      3     11    1
   12      3     12    1
   13      5     13    1
   14      5     14    1
   15      6     15    1
   16      6     16    1
#
#	File Created by: Spartan'20 Export
#

@<TRIPOS>MOLECULE
M0048
21 22
SMALL
USER_CHARGES


@<TRIPOS>ATOM
    1   C1         0.477125772    -1.359848181    -0.639329270     C.3   1  noname   -0.440839
    2   C2        -0.731788305    -1.435109108     0.328313654     C.3   1  noname    0.098131
    3   N3        -0.999971087    -0.134415449     0.964122967     N.3   1  noname   -0.611380
    4   C4        -1.450414360     0.812066811    -0.067251686     C.3   1  noname    0.111340
    5   C5        -0.459467627     0.867954754    -1.260550399     C.3   1  noname   -0.489601
    6   C6         0.816658622     0.118406511    -0.850024889     C.3   1  noname    0.407115
    7   C7         1.277630574     0.734093162     0.470081712     C.3   1  noname   -0.217688
    8   C8         0.243899749     0.361300356     1.560438469     C.3   1  noname    0.040207
    9   Cl9        2.934253464     0.194451654     0.920852716      Cl   1  noname   -0.204068
   10   H10        0.244429312    -1.827960701    -1.603240785       H   1  noname    0.117636
   11   H11        1.347942154    -1.883003298    -0.229294239       H   1  noname    0.141711
   12   H12       -0.561319808    -2.170719528     1.122348878       H   1  noname    0.084626
   13   H13       -1.646400560    -1.732477524    -0.197677507       H   1  noname    0.099256
   14   H14       -2.451325813     0.508532136    -0.393047100       H   1  noname    0.085402
   15   H15       -1.550453630     1.793543615     0.411135735       H   1  noname    0.095460
   16   H16       -0.883255599     0.389923053    -2.151975910       H   1  noname    0.153517
   17   H17       -0.225935522     1.904402400    -1.533167553       H   1  noname    0.119856
   18   H18        1.597592611     0.236914146    -1.608765252       H   1  noname    0.001384
   19   H19        1.358126383     1.819561711     0.357202840       H   1  noname    0.170684
   20   H20        0.644153728    -0.426140322     2.207958516       H   1  noname    0.139478
   21   H21        0.018519942     1.228523801     2.191869102       H   1  noname    0.097771


@<TRIPOS>BOND
    1      1      2    1
    2      2      3    1
    3      3      4    1
    4      4      5    1
    5      5      6    1
    6      6      7    1
    7      7      8    1
    8      7      9    1
    9      6      1    1
   10      8      3    1
   11      1     10    1
   12      1     11    1
   13      2     12    1
   14      2     13    1
   15      4     14    1
   16      4     15    1
   17      5     16    1
   18      5     17    1
   19      6     18    1
   20      7     19    1
   21      8     20    1
   22      8     21    1
#
#	File Created by: Spartan'20 Export
#

@<TRIPOS>MOLECULE
M0049
21 22
SMALL
USER_CHARGES


@<TRIPOS>ATOM
    1   C1        -1.438653203    -0.000005741    -0.672235407     C.3   1  noname   -0.442957
    2   C2        -1.380462457     0.000001709     0.879826357     C.3   1  noname    0.154478
    3   N3         0.000117783     0.000003231     1.382564019     N.3   1  noname   -0.670020
    4   C4         0.690207502     1.195670967     0.879686124     C.3   1  noname    0.130771
    5   C5         0.719332364     1.245939747    -0.672345535     C.3   1  noname   -0.457227
    6   C6        -0.000000773     0.000000986    -1.198689143     C.3   1  noname    0.512048
    7   C7         0.719340913    -1.245931022    -0.672340695     C.3   1  noname   -0.457228
    8   C8         0.690191759    -1.195674077     0.879690436     C.3   1  noname    0.130761
    9   H9        -1.973262814     0.880940614    -1.047519898       H   1  noname    0.109912
   10   H10       -1.973253352    -0.880960887    -1.047511552       H   1  noname    0.109913
   11   H11       -1.881479166    -0.881143450     1.295784535       H   1  noname    0.073633
   12   H12       -1.881487391     0.881148746     1.295777992       H   1  noname    0.073632
   13   H13        1.703804730     1.189335825     1.295727912       H   1  noname    0.081463
   14   H14        0.177433336     2.070045523     1.295535796       H   1  noname    0.081722
   15   H15        1.749569813     1.268134688    -1.047601838       H   1  noname    0.115468
   16   H16        0.223953467     2.149540303    -1.047619777       H   1  noname    0.114572
   17   H17       -0.000087188    -0.000000236    -2.294791729       H   1  noname   -0.054172
   18   H18        0.223981645    -2.149536665    -1.047628020       H   1  noname    0.114572
   19   H19        1.749584713    -1.268105440    -1.047582099       H   1  noname    0.115470
   20   H20        1.703783063    -1.189368322     1.295750959       H   1  noname    0.081465
   21   H21        0.177385257    -2.070036500     1.295521562       H   1  noname    0.081726


@<TRIPOS>BOND
    1      1      2    1
    2      2      3    1
    3      3      4    1
    4      4      5    1
    5      5      6    1
    6      6      7    1
    7      7      8    1
    8      6      1    1
    9      8      3    1
   10      1      9    1
   11      1     10    1
   12      2     11    1
   13      2     12    1
   14      4     13    1
   15      4     14    1
   16      5     15    1
   17      5     16    1
   18      6     17    1
   19      7     18    1
   20      7     19    1
   21      8     20    1
   22      8     21    1
#
#	File Created by: Spartan'20 Export
#

@<TRIPOS>MOLECULE
M0050
20 21
SMALL
USER_CHARGES


@<TRIPOS>ATOM
    1   C1        -1.378237339     0.000091059    -0.777523542     C.3   1  noname   -0.110926
    2   C2        -1.378237554    -0.000090381     0.777522936     C.3   1  noname   -0.110924
    3   N3        -0.000018386     0.000000861     1.289496677     N.3   1  noname   -0.447875
    4   C4         0.689234754    -1.193516450     0.777533567     C.3   1  noname   -0.107660
    5   C5         0.689083075    -1.193605411    -0.777531703     C.3   1  noname   -0.107659
    6   N6        -0.000017648     0.000000567    -1.289496386     N.3   1  noname   -0.447873
    7   C7         0.689234932     1.193517907    -0.777533415     C.3   1  noname   -0.107661
    8   C8         0.689083098     1.193606140     0.777531809     C.3   1  noname   -0.107656
    9   H9        -1.885106493     0.883842446    -1.182136362       H   1  noname    0.129610
   10   H10       -1.885316781    -0.883445613    -1.182343744       H   1  noname    0.129589
   11   H11       -1.885101916    -0.883844745     1.182135018       H   1  noname    0.129609
   12   H12       -1.885322219     0.883442996     1.182343600       H   1  noname    0.129589
   13   H13        1.708007264    -1.190668408     1.182203156       H   1  noname    0.128663
   14   H14        0.177508617    -2.074382050     1.182349594       H   1  noname    0.128796
   15   H15        1.707774622    -1.191046305    -1.182408061       H   1  noname    0.128643
   16   H16        0.177067301    -2.074399165    -1.182141851       H   1  noname    0.128816
   17   H17        1.708007791     1.190667613    -1.182202578       H   1  noname    0.128663
   18   H18        0.177511100     2.074384358    -1.182350387       H   1  noname    0.128797
   19   H19        0.177070982     2.074401295     1.182143633       H   1  noname    0.128816
   20   H20        1.707774800     1.191043287     1.182408038       H   1  noname    0.128642


@<TRIPOS>BOND
    1      1      2    1
    2      2      3    1
    3      3      4    1
    4      4      5    1
    5      5      6    1
    6      6      7    1
    7      7      8    1
    8      6      1    1
    9      8      3    1
   10      1      9    1
   11      1     10    1
   12      2     11    1
   13      2     12    1
   14      4     13    1
   15      4     14    1
   16      5     15    1
   17      5     16    1
   18      7     17    1
   19      7     18    1
   20      8     19    1
   21      8     20    1
#
#	File Created by: Spartan'20 Export
#

@<TRIPOS>MOLECULE
M0051
11 11
SMALL
USER_CHARGES


@<TRIPOS>ATOM
    1   C1         0.983398923     0.000000209     0.058213246     C.3   1  noname   -0.486122
    2   C2        -0.146122755     1.044062132    -0.012203313     C.3   1  noname    0.200626
    3   N3        -1.078182434    -0.000001576     0.479323717     N.3   1  noname   -0.729846
    4   C4        -0.146122450    -1.044061907    -0.012209081     C.3   1  noname    0.200624
    5   H5         1.732851038     0.000003431    -0.735546433       H   1  noname    0.138262
    6   H6         1.474732423    -0.000001489     1.033165867       H   1  noname    0.180572
    7   H7        -0.332201197     1.360845931    -1.050268296       H   1  noname    0.035467
    8   H8        -0.078714442     1.930808183     0.625255473       H   1  noname    0.043717
    9   H9        -1.998722803    -0.000001057     0.039300857       H   1  noname    0.337516
   10   H10       -0.332201827    -1.360840748    -1.050277230       H   1  noname    0.035467
   11   H11       -0.078714475    -1.930813108     0.625245193       H   1  noname    0.043717


@<TRIPOS>BOND
    1      1      2    1
    2      2      3    1
    3      3      4    1
    4      4      1    1
    5      1      5    1
    6      1      6    1
    7      2      7    1
    8      2      8    1
    9      3      9    1
   10      4     10    1
   11      4     11    1
#
#	File Created by: Spartan'20 Export
#

@<TRIPOS>MOLECULE
M0052
16 16
SMALL
USER_CHARGES


@<TRIPOS>ATOM
    1   C1        -1.321133691     0.332194623     0.294416316     C.3   1  noname    0.112990
    2   C2        -0.934703782    -0.933108697    -0.460244524     C.3   1  noname    0.038367
    3   N3         0.413657525    -1.417794083    -0.115728648     N.3   1  noname   -0.768772
    4   C4         1.321117950    -0.332288807     0.294512938     C.3   1  noname    0.115412
    5   C5         0.934590271     0.932915021    -0.460617235     C.3   1  noname    0.036770
    6   N6        -0.414005332     1.417567768    -0.116902226     N.3   1  noname   -0.767890
    7   H7        -1.277977913     0.118488564     1.375650838       H   1  noname    0.046358
    8   H8        -2.353990427     0.620101376     0.062703784       H   1  noname    0.034917
    9   H9        -1.653788378    -1.734995068    -0.263366688       H   1  noname    0.052170
   10   H10       -0.980039661    -0.723943427    -1.535334217       H   1  noname    0.117672
   11   H11        0.338915032    -2.091898412     0.642509504       H   1  noname    0.366076
   12   H12        2.353865344    -0.620270093     0.062373017       H   1  noname    0.034390
   13   H13        1.278562980    -0.118023171     1.375807598       H   1  noname    0.045742
   14   H14        1.652929014     1.734728912    -0.262800645       H   1  noname    0.052672
   15   H15        0.981146211     0.724316979    -1.535335744       H   1  noname    0.117267
   16   H16       -0.339145145     2.092008515     0.642355933       H   1  noname    0.365858


@<TRIPOS>BOND
    1      1      2    1
    2      2      3    1
    3      3      4    1
    4      4      5    1
    5      5      6    1
    6      6      1    1
    7      1      7    1
    8      1      8    1
    9      2      9    1
   10      2     10    1
   11      3     11    1
   12      4     12    1
   13      4     13    1
   14      5     14    1
   15      5     15    1
   16      6     16    1
#
#	File Created by: Spartan'20 Export
#

@<TRIPOS>MOLECULE
M0053
10 10
SMALL
USER_CHARGES


@<TRIPOS>ATOM
    1   C1        -0.050803185    -0.000000598     0.803588229     C.3   1  noname   -0.398728
    2   C2         0.012555137     1.026896268    -0.334581200     C.3   1  noname    0.170448
    3   O3        -0.263101919    -0.000000490    -1.323882836     O.3   1  noname   -0.476414
    4   C4         0.012555507    -1.026897729    -0.334581577     C.3   1  noname    0.170446
    5   H5         0.763664543     0.000001261     1.530549530       H   1  noname    0.127616
    6   H6        -1.009052316     0.000001506     1.325950155       H   1  noname    0.147356
    7   H7        -0.740271397     1.820722459    -0.353343968       H   1  noname    0.069386
    8   H8         1.007362622     1.467139848    -0.480175816       H   1  noname    0.060251
    9   H9        -0.740272075    -1.820722757    -0.353345233       H   1  noname    0.069387
   10   H10        1.007363082    -1.467139768    -0.480177286       H   1  noname    0.060252


@<TRIPOS>BOND
    1      1      2    1
    2      2      3    1
    3      3      4    1
    4      4      1    1
    5      1      5    1
    6      1      6    1
    7      2      7    1
    8      2      8    1
    9      4      9    1
   10      4     10    1
#
#	File Created by: Spartan'20 Export
#

@<TRIPOS>MOLECULE
M0054
9 9
SMALL
USER_CHARGES


@<TRIPOS>ATOM
    1   C1         0.768000854    -0.000000166    -0.089802077     C.3   1  noname   -0.600543
    2   C2        -0.587656975     0.000000092    -0.798191122     C.3   1  noname    0.231549
    3   O3        -1.285385750     0.000001282     0.498544362     O.3   1  noname   -0.494389
    4   C4        -0.079269648     0.000000347     1.177479189     C.2   1  noname    0.883139
    5   O5         0.097636906    -0.000001249     2.366611899     O.2   1  noname   -0.567816
    6   H6         1.382796753     0.893436483    -0.213664534       H   1  noname    0.200864
    7   H7         1.382797730    -0.893436197    -0.213663643       H   1  noname    0.200864
    8   H8        -0.839460407    -0.898257763    -1.363656038       H   1  noname    0.073166
    9   H9        -0.839459462     0.898257172    -1.363658036       H   1  noname    0.073166


@<TRIPOS>BOND
    1      1      2    1
    2      2      3    1
    3      3      4    1
    4      4      5    2
    5      4      1    1
    6      1      6    1
    7      1      7    1
    8      2      8    1
    9      2      9    1
#
#	File Created by: Spartan'20 Export
#

@<TRIPOS>MOLECULE
M0055
11 11
SMALL
USER_CHARGES


@<TRIPOS>ATOM
    1   C1        -0.660236764     0.637906756     0.341783603     C.3   1  noname    0.017910
    2   C2        -0.841071040    -0.608237727    -0.540427465     C.3   1  noname   -0.043090
    3   O3         0.481481783    -0.966170892    -1.030419549     O.3   1  noname   -0.346573
    4   C4         1.361523848    -0.347649498    -0.174706424     C.2   1  noname    0.087588
    5   C5         0.810760225     0.535902505     0.666618584     C.2   1  noname   -0.371459
    6   H6        -0.885880960     1.565246173    -0.200380833       H   1  noname    0.065230
    7   H7        -1.311885301     0.601916742     1.220455748       H   1  noname    0.053385
    8   H8        -1.482903044    -0.461541261    -1.410748597       H   1  noname    0.107602
    9   H9        -1.212232304    -1.455358395     0.048394414       H   1  noname    0.105599
   10   H10        2.394595177    -0.648449150    -0.302123009       H   1  noname    0.153743
   11   H11        1.345848380     1.146434747     1.381553527       H   1  noname    0.170065


@<TRIPOS>BOND
    1      1      2    1
    2      2      3    1
    3      3      4    1
    4      4      5    2
    5      5      1    1
    6      1      6    1
    7      1      7    1
    8      2      8    1
    9      2      9    1
   10      4     10    1
   11      5     11    1
#
#	File Created by: Spartan'20 Export
#

@<TRIPOS>MOLECULE
M0056
15 15
SMALL
USER_CHARGES


@<TRIPOS>ATOM
    1   C1         1.010205931    -0.793852815     0.390536421     C.3   1  noname    0.138540
    2   C2         1.283798731     0.337819711    -0.581110081     C.3   1  noname    0.018489
    3   O3         0.464551786     1.481131254    -0.309072406     O.3   1  noname   -0.424324
    4   C4        -0.831475982     1.143633424     0.200967382     C.3   1  noname    0.013172
    5   C5        -1.271161392    -0.230864111    -0.277996874     C.3   1  noname    0.095973
    6   N6        -0.354534859    -1.297245994     0.161210092     N.3   1  noname   -0.787935
    7   H7         1.168906564    -0.409869642     1.410535941       H   1  noname    0.054130
    8   H8         1.729165393    -1.606119449     0.230000407       H   1  noname    0.040299
    9   H9         2.318910773     0.681354501    -0.500813145       H   1  noname    0.072125
   10   H10        1.119902937    -0.016255361    -1.608830363       H   1  noname    0.111901
   11   H11       -1.514336480     1.926169955    -0.146339585       H   1  noname    0.073431
   12   H12       -0.819599686     1.169212828     1.301263608       H   1  noname    0.086611
   13   H13       -1.317023366    -0.221523083    -1.373203036       H   1  noname    0.088240
   14   H14       -2.281667498    -0.455328733     0.079627527       H   1  noname    0.052150
   15   H15       -0.705642853    -1.708262486     1.023224112       H   1  noname    0.367198


@<TRIPOS>BOND
    1      1      2    1
    2      2      3    1
    3      3      4    1
    4      4      5    1
    5      5      6    1
    6      6      1    1
    7      1      7    1
    8      1      8    1
    9      2      9    1
   10      2     10    1
   11      4     11    1
   12      4     12    1
   13      5     13    1
   14      5     14    1
   15      6     15    1
#
#	File Created by: Spartan'20 Export
#

@<TRIPOS>MOLECULE
M0057
14 14
SMALL
USER_CHARGES


@<TRIPOS>ATOM
    1   C1         0.362360435     1.135539691    -0.664925638     C.3   1  noname    0.015898
    2   C2        -0.362357497     1.135530480     0.664920830     C.3   1  noname    0.015893
    3   O3         0.000036573     0.000012674     1.458718276     O.3   1  noname   -0.424521
    4   C4         0.362355158    -1.135537683     0.664928556     C.3   1  noname    0.015902
    5   C5        -0.362352585    -1.135528592    -0.664923653     C.3   1  noname    0.015898
    6   O6         0.000015981    -0.000000580    -1.458718111     O.3   1  noname   -0.424521
    7   H7         0.101694695     2.023652294    -1.249104225       H   1  noname    0.091337
    8   H8         1.447391136     1.146803178    -0.490567658       H   1  noname    0.105027
    9   H9        -1.447388661     1.146752850     0.490564769       H   1  noname    0.105027
   10   H10       -0.101726016     2.023655090     1.249096071       H   1  noname    0.091341
   11   H11        1.447385865    -1.146819959     0.490561913       H   1  noname    0.105022
   12   H12        0.101682319    -2.023643458     1.249115739       H   1  noname    0.091336
   13   H13       -0.101713616    -2.023646460    -1.249107130       H   1  noname    0.091340
   14   H14       -1.447383786    -1.146769524    -0.490559740       H   1  noname    0.105021


@<TRIPOS>BOND
    1      1      2    1
    2      2      3    1
    3      3      4    1
    4      4      5    1
    5      5      6    1
    6      6      1    1
    7      1      7    1
    8      1      8    1
    9      2      9    1
   10      2     10    1
   11      4     11    1
   12      4     12    1
   13      5     13    1
   14      5     14    1
#
#	File Created by: Spartan'20 Export
#

@<TRIPOS>MOLECULE
M0058
11 11
SMALL
USER_CHARGES


@<TRIPOS>ATOM
    1   C1         0.732012780    -0.196698449    -0.782281968     C.3   1  noname   -0.000143
    2   C2        -0.732027827     0.196719854    -0.782318058     C.3   1  noname    0.006040
    3   O3        -1.134196323    -0.197279375     0.532304854     O.3   1  noname   -0.429136
    4   C4         0.000011204     0.000001348     1.366932983     C.3   1  noname    0.256378
    5   O5         1.134150290     0.197502925     0.532288740     O.3   1  noname   -0.427653
    6   H6         1.352179460     0.344836325    -1.498304934       H   1  noname    0.105348
    7   H7         0.851290045    -1.278329385    -0.927127469       H   1  noname    0.108883
    8   H8        -1.352170729    -0.344920007    -1.498279468       H   1  noname    0.103992
    9   H9        -0.851309545     1.278322908    -0.927329580       H   1  noname    0.107789
   10   H10       -0.110239008     0.893778336     1.992170790       H   1  noname    0.084383
   11   H11        0.110299654    -0.893934481     1.991944108       H   1  noname    0.084117


@<TRIPOS>BOND
    1      1      2    1
    2      2      3    1
    3      3      4    1
    4      4      5    1
    5      5      1    1
    6      1      6    1
    7      1      7    1
    8      2      8    1
    9      2      9    1
   10      4     10    1
   11      4     11    1
#
#	File Created by: Spartan'20 Export
#

@<TRIPOS>MOLECULE
M0059
14 14
SMALL
USER_CHARGES


@<TRIPOS>ATOM
    1   C1         0.000000420    -0.000002833    -1.280740079     C.3   1  noname   -0.119216
    2   C2        -1.196666116    -0.288547276    -0.367824966     C.3   1  noname    0.056166
    3   O3        -1.064085830     0.498799629     0.821999799     O.3   1  noname   -0.405148
    4   C4         0.000001214    -0.000002014     1.609704241     C.3   1  noname    0.108800
    5   O5         1.064094237    -0.498789990     0.822000785     O.3   1  noname   -0.405148
    6   C6         1.196665564     0.288554365    -0.367826107     C.3   1  noname    0.056163
    7   H7         0.196721643    -0.863044306    -1.925650134       H   1  noname    0.063240
    8   H8        -0.196721101     0.863027050    -1.925664804       H   1  noname    0.063240
    9   H9        -2.147952308     0.000572828    -0.818349875       H   1  noname    0.081162
   10   H10       -1.243474910    -1.354634438    -0.109587505       H   1  noname    0.095256
   11   H11       -0.322141846    -0.843604861     2.234930783       H   1  noname    0.114531
   12   H12        0.322139767     0.843587546     2.234949395       H   1  noname    0.114532
   13   H13        1.243465285     1.354642984    -0.109590932       H   1  noname    0.095258
   14   H14        2.147953982    -0.000558685    -0.818350600       H   1  noname    0.081162


@<TRIPOS>BOND
    1      1      2    1
    2      2      3    1
    3      3      4    1
    4      4      5    1
    5      5      6    1
    6      6      1    1
    7      1      7    1
    8      1      8    1
    9      2      9    1
   10      2     10    1
   11      4     11    1
   12      4     12    1
   13      6     13    1
   14      6     14    1
#
#	File Created by: Spartan'20 Export
#

@<TRIPOS>MOLECULE
M0060
10 10
SMALL
USER_CHARGES


@<TRIPOS>ATOM
    1   C1        -0.409945176     0.815297343     0.104861075     C.3   1  noname    0.037136
    2   C2        -0.815670559    -0.647016966     0.044526661     C.3   1  noname   -0.051724
    3   O3         0.405195724    -1.375530844    -0.222937913     O.3   1  noname   -0.341216
    4   S4         1.675291915    -0.357122204    -0.663592922       S   1  noname    0.680681
    5   O5         2.473716385    -0.096066487     0.539530705     O.2   1  noname   -0.451331
    6   O6         0.612043316     0.918104466    -0.914300642     O.3   1  noname   -0.359372
    7   H7        -1.206128796     1.505490744    -0.173613981       H   1  noname    0.112622
    8   H8         0.008524732     1.087976236     1.078458442       H   1  noname    0.126794
    9   H9        -1.511683120    -0.835254130    -0.777627445       H   1  noname    0.118651
   10   H10       -1.231344421    -1.015878158     0.984696021       H   1  noname    0.127758


@<TRIPOS>BOND
    1      1      2    1
    2      2      3    1
    3      3      4    1
    4      4      5    2
    5      4      6    1
    6      6      1    1
    7      1      7    1
    8      1      8    1
    9      2      9    1
   10      2     10    1
#
#	File Created by: Spartan'20 Export
#

@<TRIPOS>MOLECULE
M0061
7 7
SMALL
USER_CHARGES


@<TRIPOS>ATOM
    1   C1        -0.740637504     0.000000599    -0.074031319     C.3   1  noname   -0.260186
    2   C2         0.740638908    -0.000000384    -0.074028033     C.3   1  noname   -0.260185
    3   S3        -0.000001045    -0.000000231     1.584524793     S.3   1  noname   -0.147030
    4   H4        -1.251187333     0.914632660    -0.359113788       H   1  noname    0.166851
    5   H5        -1.251185108    -0.914631618    -0.359117677       H   1  noname    0.166850
    6   H6         1.251185332     0.914631412    -0.359119067       H   1  noname    0.166850
    7   H7         1.251186749    -0.914632440    -0.359114908       H   1  noname    0.166850


@<TRIPOS>BOND
    1      1      2    1
    2      2      3    1
    3      3      1    1
    4      1      4    1
    5      1      5    1
    6      2      6    1
    7      2      7    1
#
#	File Created by: Spartan'20 Export
#

@<TRIPOS>MOLECULE
M0062
10 10
SMALL
USER_CHARGES


@<TRIPOS>ATOM
    1   C1         0.688506676     0.321950749    -0.807428012     C.3   1  noname   -0.168970
    2   C2        -0.688566599    -0.321922216    -0.807451580     C.3   1  noname   -0.173618
    3   S3        -1.472417182     0.083999513     0.777088359     S.3   1  noname   -0.082795
    4   C4         0.000030097     0.000072101     1.740745837     C.2   1  noname    0.227796
    5   S5         0.000033528    -0.000124262     3.373940854     S.2   1  noname   -0.266574
    6   S6         1.472496312    -0.083952504     0.777094732     S.3   1  noname   -0.084038
    7   H7         1.311236400    -0.074423978    -1.614544905       H   1  noname    0.151660
    8   H8         0.612792020     1.407826231    -0.912467667       H   1  noname    0.121486
    9   H9        -0.612827128    -1.407784819    -0.912394255       H   1  noname    0.122478
   10   H10       -1.311284126     0.074359187    -1.614583362       H   1  noname    0.152577


@<TRIPOS>BOND
    1      1      2    1
    2      2      3    1
    3      3      4    1
    4      4      5    2
    5      4      6    1
    6      6      1    1
    7      1      7    1
    8      1      8    1
    9      2      9    1
   10      2     10    1
#
#	File Created by: Spartan'20 Export
#

@<TRIPOS>MOLECULE
M0063
10 10
SMALL
USER_CHARGES


@<TRIPOS>ATOM
    1   C1        -0.289381655    -0.000000243     0.677758116     C.3   1  noname   -0.430911
    2   C2         0.120787145    -1.134107522    -0.275262273     C.3   1  noname   -0.025742
    3   S3         0.011282754    -0.000000436    -1.720294677     S.3   1  noname   -0.221984
    4   C4         0.120785565     1.134105655    -0.275262739     C.3   1  noname   -0.025741
    5   H5         0.192503728     0.000003270     1.660811542       H   1  noname    0.154880
    6   H6        -1.373294825     0.000000308     0.815169399       H   1  noname    0.160094
    7   H7        -0.540517711    -2.000315484    -0.324537893       H   1  noname    0.101138
    8   H8         1.149175660    -1.466990493    -0.116924122       H   1  noname    0.093565
    9   H9        -0.540516415     2.000316456    -0.324535689       H   1  noname    0.101138
   10   H10        1.149175753     1.466988489    -0.116921664       H   1  noname    0.093564


@<TRIPOS>BOND
    1      1      2    1
    2      2      3    1
    3      3      4    1
    4      4      1    1
    5      1      5    1
    6      1      6    1
    7      2      7    1
    8      2      8    1
    9      4      9    1
   10      4     10    1
#
#	File Created by: Spartan'20 Export
#

@<TRIPOS>MOLECULE
M0064
15 15
SMALL
USER_CHARGES


@<TRIPOS>ATOM
    1   C1         0.830148701    -0.780763522    -0.681478096     C.3   1  noname   -0.002699
    2   C2         1.493979681     0.465441044    -0.099357300     C.3   1  noname   -0.141579
    3   S3         0.383428567     1.905895589    -0.239790408     S.3   1  noname   -0.234975
    4   C4        -1.208946208     1.017662896    -0.153989165     C.3   1  noname   -0.187718
    5   C5        -1.112503682    -0.208440312     0.739095530     C.3   1  noname    0.072863
    6   N6        -0.335060210    -1.262797300     0.071832110     N.3   1  noname   -0.722999
    7   H7         0.527262467    -0.563670339    -1.712064059       H   1  noname    0.113495
    8   H8         1.554055000    -1.601279322    -0.733598129       H   1  noname    0.080227
    9   H9         2.403950534     0.711307712    -0.655187184       H   1  noname    0.116731
   10   H10        1.771930305     0.295888688     0.945852031       H   1  noname    0.120691
   11   H11       -1.936172538     1.725510604     0.252378969       H   1  noname    0.130648
   12   H12       -1.543158618     0.721740732    -1.152411629       H   1  noname    0.156517
   13   H13       -2.117207240    -0.601549936     0.935146905       H   1  noname    0.061351
   14   H14       -0.688978118     0.103496254     1.707498494       H   1  noname    0.071636
   15   H15       -0.022728639    -1.928442787     0.776071929       H   1  noname    0.365810


@<TRIPOS>BOND
    1      1      2    1
    2      2      3    1
    3      3      4    1
    4      4      5    1
    5      5      6    1
    6      6      1    1
    7      1      7    1
    8      1      8    1
    9      2      9    1
   10      2     10    1
   11      4     11    1
   12      4     12    1
   13      5     13    1
   14      5     14    1
   15      6     15    1
#
#	File Created by: Spartan'20 Export
#

@<TRIPOS>MOLECULE
M0065
14 14
SMALL
USER_CHARGES


@<TRIPOS>ATOM
    1   C1         0.680295145     1.379236165     0.342029081     C.3   1  noname   -0.183239
    2   C2        -0.680288486     1.379271844    -0.342036010     C.3   1  noname   -0.183181
    3   S3        -1.743260320     0.000003134     0.164525478     S.3   1  noname   -0.180406
    4   C4        -0.680295373    -1.379272185    -0.342040565     C.3   1  noname   -0.183181
    5   C5         0.680294577    -1.379227786     0.342012377     C.3   1  noname   -0.183241
    6   S6         1.743257716     0.000007303    -0.164657052     S.3   1  noname   -0.180365
    7   H7         1.230297750     2.285525681     0.067972663       H   1  noname    0.143983
    8   H8         0.557109451     1.374533855     1.429439035       H   1  noname    0.129428
    9   H9        -0.557087775     1.374700953    -1.429443051       H   1  noname    0.129420
   10   H10       -1.230304780     2.285519680    -0.067877913       H   1  noname    0.143974
   11   H11       -0.557137237    -1.374733095    -1.429453262       H   1  noname    0.129422
   12   H12       -1.230285521    -2.285514877    -0.067826057       H   1  noname    0.143973
   13   H13        1.230292560    -2.285508831     0.067932379       H   1  noname    0.143983
   14   H14        0.557112293    -1.374541843     1.429422896       H   1  noname    0.129430


@<TRIPOS>BOND
    1      1      2    1
    2      2      3    1
    3      3      4    1
    4      4      5    1
    5      5      6    1
    6      6      1    1
    7      1      7    1
    8      1      8    1
    9      2      9    1
   10      2     10    1
   11      4     11    1
   12      4     12    1
   13      5     13    1
   14      5     14    1
#
#	File Created by: Spartan'20 Export
#

@<TRIPOS>MOLECULE
M0066
12 12
SMALL
USER_CHARGES


@<TRIPOS>ATOM
    1   C1        -0.673074089    -0.610973439    -0.398155138     C.3   1  noname   -0.077094
    2   C2        -1.209666049     0.640491444     0.282060465     C.3   1  noname   -0.075068
    3   S3         0.195681650     1.281632278     1.255966795     S.3   1  noname   -0.232889
    4   C4         1.393717446     0.234056967     0.349401152     C.3   1  noname    0.119327
    5   N5         0.669691019    -0.229446277    -0.832883157     N.3   1  noname   -0.664063
    6   H6        -1.276612064    -0.885246426    -1.268153025       H   1  noname    0.110319
    7   H7        -0.680265499    -1.452250795     0.314820741       H   1  noname    0.092912
    8   H8        -2.048609496     0.419174227     0.945146953       H   1  noname    0.096183
    9   H9        -1.514811933     1.378109283    -0.462341963       H   1  noname    0.119726
   10   H10        1.724581105    -0.580787177     1.011188043       H   1  noname    0.059985
   11   H11        2.260696114     0.828717794     0.049835960       H   1  noname    0.096994
   12   H12        1.158671796    -1.023477879    -1.246886827       H   1  noname    0.353669


@<TRIPOS>BOND
    1      1      2    1
    2      2      3    1
    3      3      4    1
    4      4      5    1
    5      5      1    1
    6      1      6    1
    7      1      7    1
    8      2      8    1
    9      2      9    1
   10      4     10    1
   11      4     11    1
   12      5     12    1
#
#	File Created by: Spartan'20 Export
#

@<TRIPOS>MOLECULE
M0067
11 11
SMALL
USER_CHARGES


@<TRIPOS>ATOM
    1   C1        -0.684465248     0.332754589    -0.943393917     C.3   1  noname   -0.188649
    2   C2         0.682601339    -0.329329987    -0.934981304     C.3   1  noname   -0.234608
    3   S3         1.495337529     0.147021298     0.613097813     S.3   1  noname   -0.191395
    4   C4         0.001880670    -0.002057017     1.651734674     C.3   1  noname    0.019026
    5   S5        -1.501551625    -0.101768958     0.615964064     S.3   1  noname   -0.199697
    6   H6        -0.587200609     1.416141928    -1.046553868       H   1  noname    0.128333
    7   H7        -1.307955357    -0.050931110    -1.756694134       H   1  noname    0.159224
    8   H8         1.306431575     0.034203895    -1.757343163       H   1  noname    0.170457
    9   H9         0.587265093    -1.415414482    -1.010625221       H   1  noname    0.138660
   10   H10       -0.035342624     0.872783867     2.303206307       H   1  noname    0.100417
   11   H11        0.042999256    -0.903404023     2.265588749       H   1  noname    0.098232


@<TRIPOS>BOND
    1      1      2    1
    2      2      3    1
    3      3      4    1
    4      4      5    1
    5      5      1    1
    6      1      6    1
    7      1      7    1
    8      2      8    1
    9      2      9    1
   10      4     10    1
   11      4     11    1
#
#	File Created by: Spartan'20 Export
#

@<TRIPOS>MOLECULE
M0068
14 14
SMALL
USER_CHARGES


@<TRIPOS>ATOM
    1   C1         0.000008298    -0.000022850    -1.362324406     C.3   1  noname   -0.185787
    2   C2         1.105676940     0.636730947    -0.515273947     C.3   1  noname   -0.083044
    3   S3         1.502124654    -0.350683113     0.954059490     S.3   1  noname   -0.216691
    4   C4         0.000019983    -0.000000416     1.930329757     C.3   1  noname   -0.096715
    5   S5        -1.502108224     0.350730009     0.954046619     S.3   1  noname   -0.216693
    6   C6        -1.105704388    -0.636694008    -0.515285805     C.3   1  noname   -0.083038
    7   H7         0.427293754    -0.774565497    -2.009869262       H   1  noname    0.088750
    8   H8        -0.427251152     0.774449602    -2.009949039       H   1  noname    0.088750
    9   H9         0.821344615     1.641728417    -0.194116373       H   1  noname    0.094020
   10   H10        2.032933875     0.726687373    -1.088038587       H   1  noname    0.121619
   11   H11       -0.156130734    -0.872693234     2.569282847       H   1  noname    0.136594
   12   H12        0.156185731     0.872634486     2.569338507       H   1  noname    0.136599
   13   H13       -0.821427654    -1.641708960    -0.194145504       H   1  noname    0.094014
   14   H14       -2.032965697    -0.726592757    -1.088054298       H   1  noname    0.121621


@<TRIPOS>BOND
    1      1      2    1
    2      2      3    1
    3      3      4    1
    4      4      5    1
    5      5      6    1
    6      6      1    1
    7      1      7    1
    8      1      8    1
    9      2      9    1
   10      2     10    1
   11      4     11    1
   12      4     12    1
   13      6     13    1
   14      6     14    1
#
#	File Created by: Spartan'20 Export
#

@<TRIPOS>MOLECULE
M0069
22 24
SMALL
USER_CHARGES


@<TRIPOS>ATOM
    1   C1        -1.371703041    -0.000000008     0.969914025     C.3   1  noname    0.164933
    2   N2        -0.000015295     0.000000103     1.503822185     N.3   1  noname   -0.600511
    3   C3         0.685858587     1.187933358     0.969847849     C.3   1  noname    0.096029
    4   N4         0.708902787     1.227875358    -0.501301754     N.3   1  noname   -0.602508
    5   C5        -0.685878622     1.187976541    -0.969917564     C.3   1  noname    0.174337
    6   N6        -1.417804209    -0.000000898    -0.501291589     N.3   1  noname   -0.626756
    7   C7        -0.685878308    -1.187978481    -0.969918070     C.3   1  noname    0.174337
    8   N8         0.708903251    -1.227872789    -0.501302893     N.3   1  noname   -0.602507
    9   C9         0.685857660    -1.187933159     0.969846465     C.3   1  noname    0.096024
   10   C10        1.371719539     0.000001051    -0.969930405     C.3   1  noname    0.101057
   11   H11       -1.894598637    -0.889588288     1.339601840       H   1  noname    0.127023
   12   H12       -1.894598250     0.889589271     1.339600362       H   1  noname    0.127023
   13   H13        1.717698275     1.195889946     1.339584276       H   1  noname    0.146406
   14   H14        0.176914691     2.085545386     1.339609014       H   1  noname    0.146112
   15   H15       -0.690594617     1.196157970    -2.065987631       H   1  noname    0.124930
   16   H16       -1.204074673     2.085534662    -0.613139782       H   1  noname    0.123889
   17   H17       -1.204071568    -2.085536004    -0.613136406       H   1  noname    0.123889
   18   H18       -0.690597966    -1.196161827    -2.065988290       H   1  noname    0.124930
   19   H19        1.717696756    -1.195892039     1.339585352       H   1  noname    0.146407
   20   H20        0.176909794    -2.085543726     1.339604587       H   1  noname    0.146114
   21   H21        1.381262992     0.000002689    -2.066007698       H   1  noname    0.143634
   22   H22        2.408090854     0.000000884    -0.613063357       H   1  noname    0.145209


@<TRIPOS>BOND
    1      1      2    1
    2      2      3    1
    3      3      4    1
    4      4      5    1
    5      5      6    1
    6      6      7    1
    7      7      8    1
    8      8      9    1
    9      8     10    1
   10      6      1    1
   11      9      2    1
   12     10      4    1
   13      1     11    1
   14      1     12    1
   15      3     13    1
   16      3     14    1
   17      5     15    1
   18      5     16    1
   19      7     17    1
   20      7     18    1
   21      9     19    1
   22      9     20    1
   23     10     21    1
   24     10     22    1
#
#	File Created by: Spartan'20 Export
#

@<TRIPOS>MOLECULE
M0070
12 12
SMALL
USER_CHARGES


@<TRIPOS>ATOM
    1   C1        -1.121680186     0.294443195     0.682694373     C.3   1  noname    0.249831
    2   O2         0.000025792     0.000091317     1.502651201     O.3   1  noname   -0.453293
    3   C3         1.121674824    -0.294442179     0.682699129     C.3   1  noname    0.249830
    4   O4         1.074003878     0.458175568    -0.513529115     O.3   1  noname   -0.424052
    5   C5         0.000011352     0.000002517    -1.320290145     C.3   1  noname    0.171110
    6   O6        -1.073928345    -0.458218585    -0.513495258     O.3   1  noname   -0.424051
    7   H7        -1.151205945     1.369649741     0.457802477       H   1  noname    0.097797
    8   H8        -2.016054950    -0.010599590     1.223129248       H   1  noname    0.107254
    9   H9         1.151083700    -1.369658353     0.457836367       H   1  noname    0.097797
   10   H10        2.016083965     0.010519804     1.223126100       H   1  noname    0.107257
   11   H11       -0.292971527     0.853887710    -1.941286232       H   1  noname    0.110259
   12   H12        0.292957441    -0.853851146    -1.941338146       H   1  noname    0.110261


@<TRIPOS>BOND
    1      1      2    1
    2      2      3    1
    3      3      4    1
    4      4      5    1
    5      5      6    1
    6      6      1    1
    7      1      7    1
    8      1      8    1
    9      3      9    1
   10      3     10    1
   11      5     11    1
   12      5     12    1
#
#	File Created by: Spartan'20 Export
#

@<TRIPOS>MOLECULE
M0071
26 28
SMALL
USER_CHARGES


@<TRIPOS>ATOM
    1   C1         0.377677869     1.250884840    -1.216155167     C.3   1  noname   -0.904680
    2   C2        -0.468255951     0.000000450    -1.484635554     C.3   1  noname    0.852317
    3   C3         0.377677380    -1.250884332    -1.216155516     C.3   1  noname   -0.904680
    4   C4         0.844033976    -1.252544357     0.246223111     C.3   1  noname    0.656890
    5   C5         1.676544909    -0.000000240     0.542823704     C.3   1  noname   -0.823537
    6   C6         0.844034309     1.252544203     0.246223501     C.3   1  noname    0.656890
    7   C7        -0.388439666     1.259347884     1.139357729     C.3   1  noname   -0.211756
    8   C8        -1.218140849    -0.000000043     0.913176767     C.3   1  noname    0.557568
    9   C9        -1.688496516    -0.000000198    -0.552564389     C.3   1  noname   -0.957447
   10   C10       -0.388439676    -1.259347929     1.139357790     C.3   1  noname   -0.211756
   11   F11        0.012901325    -1.341886223     2.481387514       F   1  noname   -0.254152
   12   F12        0.012900424     1.341886386     2.481387656       F   1  noname   -0.254152
   13   H13       -0.207162415     2.156076183    -1.431154827       H   1  noname    0.182139
   14   H14        1.249878546     1.269067318    -1.882751717       H   1  noname    0.206401
   15   H15       -0.807555821     0.000000719    -2.529126636       H   1  noname   -0.039956
   16   H16       -0.207163418    -2.156075330    -1.431155271       H   1  noname    0.182139
   17   H17        1.249878048    -1.269067235    -1.882752110       H   1  noname    0.206401
   18   H18        1.431630329    -2.154970765     0.459323976       H   1  noname   -0.011453
   19   H19        2.584367891    -0.000000127    -0.074560196       H   1  noname    0.186796
   20   H20        1.988931579    -0.000000512     1.591392389       H   1  noname    0.215051
   21   H21        1.431630826     2.154970392     0.459324880       H   1  noname   -0.011453
   22   H22       -1.003763612     2.149332001     0.942530329       H   1  noname    0.124012
   23   H23       -2.070884323     0.000000211     1.603842786       H   1  noname    0.014640
   24   H24       -2.315011314     0.881216655    -0.743935713       H   1  noname    0.209882
   25   H25       -2.315010105    -0.881217856    -0.743936056       H   1  noname    0.209882
   26   H26       -1.003763745    -2.149332093     0.942531018       H   1  noname    0.124012


@<TRIPOS>BOND
    1      1      2    1
    2      2      3    1
    3      3      4    1
    4      4      5    1
    5      5      6    1
    6      6      7    1
    7      7      8    1
    8      8      9    1
    9      8     10    1
   10     10     11    1
   11      7     12    1
   12      6      1    1
   13      9      2    1
   14     10      4    1
   15      1     13    1
   16      1     14    1
   17      2     15    1
   18      3     16    1
   19      3     17    1
   20      4     18    1
   21      5     19    1
   22      5     20    1
   23      6     21    1
   24      7     22    1
   25      8     23    1
   26      9     24    1
   27      9     25    1
   28     10     26    1
#
#	File Created by: Spartan'20 Export
#

@<TRIPOS>MOLECULE
M0072
7 6
SMALL
USER_CHARGES


@<TRIPOS>ATOM
    1   C1        -0.391609149     0.000000000    -0.982931132     C.2   1  noname   -0.348014
    2   C2         0.495013344     0.000000000     0.024654574     C.2   1  noname   -0.185420
    3   C3         0.084897172     0.000000000     1.399061141     C.1   1  noname    0.356356
    4   N4        -0.236936125     0.000000000     2.537718110     N.1   1  noname   -0.431962
    5   H5        -0.055137460     0.000000000    -2.013398242       H   1  noname    0.199851
    6   H6        -1.460879349     0.000000000    -0.801554136       H   1  noname    0.221393
    7   H7         1.564651568     0.000000000    -0.163550315       H   1  noname    0.187795


@<TRIPOS>BOND
    1      1      2    2
    2      2      3    1
    3      3      4    3
    4      1      5    1
    5      1      6    1
    6      2      7    1
#
#	File Created by: Spartan'20 Export
#

@<TRIPOS>MOLECULE
M0073
11 10
SMALL
USER_CHARGES


@<TRIPOS>ATOM
    1   C1        -1.485434309     0.872224071    -0.401857532     C.2   1  noname   -0.472452
    2   C2        -0.458728383     0.497139427     0.371532348     C.2   1  noname   -0.284999
    3   C3         0.266836721    -0.812426536     0.235688735     C.3   1  noname    0.436464
    4   N4         1.683973006    -0.692227943    -0.141076353     N.3   1  noname   -1.040200
    5   H5        -1.879756922     0.215846558    -1.173231003       H   1  noname    0.196494
    6   H6        -1.969399074     1.836927846    -0.288313562       H   1  noname    0.203811
    7   H7        -0.084820486     1.180545222     1.135442531       H   1  noname    0.163539
    8   H8        -0.231384563    -1.429885387    -0.519908212       H   1  noname    0.026436
    9   H9         0.227039574    -1.371253781     1.177851741       H   1  noname    0.006621
   10   H10        2.182952785    -0.179139485     0.584803427       H   1  noname    0.374975
   11   H11        1.748721651    -0.117749990    -0.980932121       H   1  noname    0.389313


@<TRIPOS>BOND
    1      1      2    2
    2      2      3    1
    3      3      4    1
    4      1      5    1
    5      1      6    1
    6      2      7    1
    7      3      8    1
    8      3      9    1
    9      4     10    1
   10      4     11    1
#
#	File Created by: Spartan'20 Export
#

@<TRIPOS>MOLECULE
M0074
25 24
SMALL
USER_CHARGES


@<TRIPOS>ATOM
    1   C1         1.894517135    -1.142081565     2.056971889     C.2   1  noname   -0.483359
    2   C2         0.984651674    -1.282810441     1.085961420     C.2   1  noname   -0.121011
    3   C3        -0.130151342    -0.316002680     0.816263968     C.3   1  noname   -0.056874
    4   N4        -0.253677581     0.008657662    -0.613612800     N.3   1  noname   -0.318510
    5   C5        -1.656605869     0.233768324    -0.985911706     C.3   1  noname   -0.204509
    6   C6        -2.439060434    -1.043136463    -0.952566064     C.2   1  noname    0.010468
    7   C7        -3.576524936    -1.211069174    -0.266372841     C.2   1  noname   -0.551503
    8   C8         0.548229908     1.181970442    -0.974309431     C.3   1  noname   -0.150060
    9   C9         2.015223153     0.980315665    -0.750376340     C.2   1  noname   -0.024140
   10   C10        2.798564905     1.872737992    -0.133161072     C.2   1  noname   -0.511087
   11   H11        1.917631782    -0.258353408     2.688834281       H   1  noname    0.201616
   12   H12        2.651887150    -1.896984295     2.243999043       H   1  noname    0.190079
   13   H13        0.989641716    -2.169243692     0.452978600       H   1  noname    0.154548
   14   H14       -1.071080087    -0.788154207     1.124045458       H   1  noname    0.136230
   15   H15       -0.010228253     0.594200176     1.431800696       H   1  noname    0.126437
   16   H16       -1.659068924     0.628150737    -2.010553901       H   1  noname    0.144165
   17   H17       -2.145509410     0.995442551    -0.347856281       H   1  noname    0.119296
   18   H18       -2.027376687    -1.860743641    -1.542471002       H   1  noname    0.133505
   19   H19       -3.998787074    -0.410455955     0.335071342       H   1  noname    0.213811
   20   H20       -4.124840097    -2.147456924    -0.287996504       H   1  noname    0.205974
   21   H21        0.217016852     2.087962997    -0.428168007       H   1  noname    0.115185
   22   H22        0.373880604     1.370910822    -2.042580004       H   1  noname    0.126675
   23   H23        2.441406706     0.067972094    -1.162840663       H   1  noname    0.150510
   24   H24        2.393063917     2.787999217     0.289918984       H   1  noname    0.198166
   25   H25        3.867195193     1.716403769    -0.027069066       H   1  noname    0.194387


@<TRIPOS>BOND
    1      1      2    2
    2      2      3    1
    3      3      4    1
    4      4      5    1
    5      5      6    1
    6      6      7    2
    7      4      8    1
    8      8      9    1
    9      9     10    2
   10      1     11    1
   11      1     12    1
   12      2     13    1
   13      3     14    1
   14      3     15    1
   15      5     16    1
   16      5     17    1
   17      6     18    1
   18      7     19    1
   19      7     20    1
   20      8     21    1
   21      8     22    1
   22      9     23    1
   23     10     24    1
   24     10     25    1
#
#	File Created by: Spartan'20 Export
#

@<TRIPOS>MOLECULE
M0075
18 17
SMALL
USER_CHARGES


@<TRIPOS>ATOM
    1   C1         1.955381606     0.821789939    -1.106672366     C.2   1  noname   -0.482197
    2   C2         1.938355932    -0.515731398    -1.084478112     C.2   1  noname   -0.120338
    3   C3         1.259751914    -1.338773033    -0.020150537     C.3   1  noname    0.004125
    4   N4         0.340128625    -0.544385914     0.791680557     N.3   1  noname   -0.654160
    5   C5        -0.953571997    -0.350229763     0.126528873     C.3   1  noname    0.202199
    6   C6        -1.872458406     0.459585925     0.989584596     C.2   1  noname   -0.206051
    7   C7        -2.416516274     1.624781610     0.620325344     C.2   1  noname   -0.509041
    8   H8         2.472827703     1.365382506    -1.890489850       H   1  noname    0.187024
    9   H9         1.454168339     1.394559239    -0.333669588       H   1  noname    0.234774
   10   H10        2.456366547    -1.079065500    -1.860773849       H   1  noname    0.132483
   11   H11        0.760265528    -2.202180874    -0.499281817       H   1  noname    0.054069
   12   H12        2.025889077    -1.759180247     0.644772434       H   1  noname    0.107381
   13   H13        0.179030169    -1.030249872     1.673754162       H   1  noname    0.334658
   14   H14       -1.431462871    -1.314655562    -0.133001658       H   1  noname    0.021948
   15   H15       -0.772754523     0.178174806    -0.814410167       H   1  noname    0.105099
   16   H16       -2.102282752     0.049922456     1.974205984       H   1  noname    0.165300
   17   H17       -2.209123734     2.063405342    -0.351749940       H   1  noname    0.209441
   18   H18       -3.083994883     2.176850339     1.273825934       H   1  noname    0.213286


@<TRIPOS>BOND
    1      1      2    2
    2      2      3    1
    3      3      4    1
    4      4      5    1
    5      5      6    1
    6      6      7    2
    7      1      8    1
    8      1      9    1
    9      2     10    1
   10      3     11    1
   11      3     12    1
   12      4     13    1
   13      5     14    1
   14      5     15    1
   15      6     16    1
   16      7     17    1
   17      7     18    1
#
#	File Created by: Spartan'20 Export
#

@<TRIPOS>MOLECULE
M0076
10 9
SMALL
USER_CHARGES


@<TRIPOS>ATOM
    1   C1         1.517546266     0.298706165    -0.207486003     C.2   1  noname   -0.501252
    2   C2         0.463017978    -0.246247327     0.411723192     C.2   1  noname   -0.176401
    3   C3        -0.878113496    -0.421395536    -0.232791514     C.3   1  noname    0.234883
    4   O4        -1.907137565     0.250266244     0.501848952     O.3   1  noname   -0.684770
    5   H5         2.474976705     0.420344152     0.288333134       H   1  noname    0.208247
    6   H6         1.456857581     0.632681311    -1.240118402       H   1  noname    0.208959
    7   H7         0.538390703    -0.567657744     1.449249879       H   1  noname    0.164249
    8   H8        -1.177020299    -1.473500321    -0.236963093       H   1  noname    0.079766
    9   H9        -0.841359989    -0.079655584    -1.277885048       H   1  noname    0.033879
   10   H10       -1.647157885     1.186458640     0.544088901       H   1  noname    0.432440


@<TRIPOS>BOND
    1      1      2    2
    2      2      3    1
    3      3      4    1
    4      1      5    1
    5      1      6    1
    6      2      7    1
    7      3      8    1
    8      3      9    1
    9      4     10    1
#
#	File Created by: Spartan'20 Export
#

@<TRIPOS>MOLECULE
M0077
17 16
SMALL
USER_CHARGES


@<TRIPOS>ATOM
    1   C1         2.755146357    -0.857332691    -0.573774599     C.2   1  noname   -0.554990
    2   C2         2.133113062    -0.099668595     0.337930990     C.2   1  noname   -0.028623
    3   C3         1.254614779     1.066892500    -0.002822475     C.3   1  noname   -0.071072
    4   O4        -0.047388690     0.949485840     0.573230816     O.3   1  noname   -0.398099
    5   C5        -0.821176253    -0.072263277    -0.056674801     C.3   1  noname    0.205943
    6   C6        -2.125992496    -0.158918659     0.664911611     C.2   1  noname   -0.145023
    7   C7        -3.315800193    -0.079747616     0.059146883     C.2   1  noname   -0.496204
    8   H8         3.398992633    -1.683776670    -0.290403524       H   1  noname    0.213380
    9   H9         2.645739771    -0.666048798    -1.638471460       H   1  noname    0.216777
   10   H10        2.249142529    -0.310827881     1.400387064       H   1  noname    0.144541
   11   H11        1.185851849     1.185053379    -1.096203638       H   1  noname    0.108096
   12   H12        1.662332806     1.993603716     0.414548145       H   1  noname    0.130729
   13   H13       -0.287768617    -1.034219443    -0.011944964       H   1  noname    0.051486
   14   H14       -0.981274850     0.168795683    -1.120722794       H   1  noname    0.062302
   15   H15       -2.062516895    -0.310100897     1.741291857       H   1  noname    0.157868
   16   H16       -4.244507958    -0.173506368     0.611967643       H   1  noname    0.203080
   17   H17       -3.398507833     0.082579776    -1.012396752       H   1  noname    0.199812


@<TRIPOS>BOND
    1      1      2    2
    2      2      3    1
    3      3      4    1
    4      4      5    1
    5      5      6    1
    6      6      7    2
    7      1      8    1
    8      1      9    1
    9      2     10    1
   10      3     11    1
   11      3     12    1
   12      5     13    1
   13      5     14    1
   14      6     15    1
   15      7     16    1
   16      7     17    1
#
#	File Created by: Spartan'20 Export
#

@<TRIPOS>MOLECULE
M0078
15 15
SMALL
USER_CHARGES


@<TRIPOS>ATOM
    1   C1         0.159888368     0.000000000     2.817352848     C.2   1  noname   -0.392479
    2   C2        -0.703669543     0.000000000     1.789189411     C.2   1  noname   -0.367544
    3   C3        -0.362936421     0.000000000     0.357407909     C.2   1  noname    0.821055
    4   C4         0.954208998     0.000000000    -0.129598695     C.2   1  noname   -0.603124
    5   C5         1.172019172     0.000000000    -1.504094589     C.2   1  noname    0.197719
    6   C6         0.070524135     0.000000000    -2.361063779     C.2   1  noname   -0.495196
    7   C7        -1.204127534     0.000000000    -1.795145359     C.2   1  noname    0.395610
    8   N8        -1.433966530     0.000000000    -0.470856572     N.2   1  noname   -0.714628
    9   H9         1.237241056     0.000000000     2.685867161       H   1  noname    0.180690
   10   H10       -0.198595703     0.000000000     3.840576176       H   1  noname    0.197313
   11   H11       -1.774342157     0.000000000     1.980699131       H   1  noname    0.198978
   12   H12        1.796567678     0.000000000     0.555967232       H   1  noname    0.221279
   13   H13        2.184433493     0.000000000    -1.900302722       H   1  noname    0.105811
   14   H14        0.194295465     0.000000000    -3.440207036       H   1  noname    0.187813
   15   H15       -2.091540476     0.000000000    -2.425791117       H   1  noname    0.066705


@<TRIPOS>BOND
    1      1      2    2
    2      2      3    1
    3      3      4    2
    4      4      5    1
    5      5      6    2
    6      6      7    1
    7      7      8    2
    8      8      3    1
    9      1      9    1
   10      1     10    1
   11      2     11    1
   12      4     12    1
   13      5     13    1
   14      6     14    1
   15      7     15    1
#
#	File Created by: Spartan'20 Export
#

@<TRIPOS>MOLECULE
M0079
15 15
SMALL
USER_CHARGES


@<TRIPOS>ATOM
    1   C1        -0.346386885     0.000000000     2.640834532     C.2   1  noname   -0.376622
    2   C2         0.538165595     0.000000000     1.630385164     C.2   1  noname   -0.360360
    3   C3         0.220856890     0.000000000     0.194039555     C.2   1  noname    0.706132
    4   C4         1.262277785     0.000000000    -0.743409803     C.2   1  noname   -0.701902
    5   C5         0.968751109     0.000000000    -2.106523217     C.2   1  noname    0.490412
    6   N6        -0.281567156     0.000000000    -2.602559319     N.2   1  noname   -0.673936
    7   C7        -1.279912103     0.000000000    -1.697472510     C.2   1  noname    0.435752
    8   C8        -1.085121718     0.000000000    -0.318545707     C.2   1  noname   -0.646145
    9   H9        -1.419829732     0.000000000     2.483632066       H   1  noname    0.193766
   10   H10       -0.010352628     0.000000000     3.671625663       H   1  noname    0.192792
   11   H11        1.600555420     0.000000000     1.871399547       H   1  noname    0.195087
   12   H12        2.298590414     0.000000000    -0.412892938       H   1  noname    0.215308
   13   H13        1.770578719     0.000000000    -2.842586690       H   1  noname    0.050513
   14   H14       -2.287784726     0.000000000    -2.108151972       H   1  noname    0.060366
   15   H15       -1.948820984     0.000000000     0.340225629       H   1  noname    0.218838


@<TRIPOS>BOND
    1      1      2    2
    2      2      3    1
    3      3      4    2
    4      4      5    1
    5      5      6    2
    6      6      7    1
    7      7      8    2
    8      8      3    1
    9      1      9    1
   10      1     10    1
   11      2     11    1
   12      4     12    1
   13      5     13    1
   14      7     14    1
   15      8     15    1
#
#	File Created by: Spartan'20 Export
#

@<TRIPOS>MOLECULE
M0080
6 5
SMALL
USER_CHARGES


@<TRIPOS>ATOM
    1   C1        -0.000015970     0.000000256    -0.496806682     C.3   1  noname   -0.698756
    2   C2        -0.000046980     0.000001033     0.966174539     C.1   1  noname    0.458712
    3   N3         0.000055121    -0.000001300     2.145934034     N.1   1  noname   -0.467194
    4   H4        -0.512732809    -0.888089725    -0.871787962       H   1  noname    0.235985
    5   H5         1.025473259     0.000000113    -0.871724088       H   1  noname    0.235269
    6   H6        -0.512732620     0.888089623    -0.871789841       H   1  noname    0.235984


@<TRIPOS>BOND
    1      1      2    1
    2      2      3    3
    3      1      4    1
    4      1      5    1
    5      1      6    1
#
#	File Created by: Spartan'20 Export
#

@<TRIPOS>MOLECULE
M0081
10 9
SMALL
USER_CHARGES


@<TRIPOS>ATOM
    1   C1         1.286651919    -0.000064443    -0.159829727     C.3   1  noname   -0.806041
    2   C2        -0.000000295    -0.000020243     0.637138057     C.2   1  noname    0.949134
    3   O3        -0.000001887    -0.000092348     1.864900388     O.2   1  noname   -0.593219
    4   C4        -1.286652675     0.000076788    -0.159827659     C.3   1  noname   -0.806039
    5   H5         1.332180927     0.881193935    -0.807297397       H   1  noname    0.208208
    6   H6         1.332500252    -0.881792583    -0.806592536       H   1  noname    0.208232
    7   H7         2.136343857     0.000368752     0.522696261       H   1  noname    0.211643
    8   H8        -2.136346389    -0.000234523     0.522695987       H   1  noname    0.211644
    9   H9        -1.332428020     0.881776483    -0.806640303       H   1  noname    0.208222
   10   H10       -1.332247688    -0.881211818    -0.807243071       H   1  noname    0.208216


@<TRIPOS>BOND
    1      1      2    1
    2      2      3    2
    3      2      4    1
    4      1      5    1
    5      1      6    1
    6      1      7    1
    7      4      8    1
    8      4      9    1
    9      4     10    1
#
#	File Created by: Spartan'20 Export
#

@<TRIPOS>MOLECULE
M0082
9 8
SMALL
USER_CHARGES


@<TRIPOS>ATOM
    1   C1         0.542256945     0.000000158    -1.241721083     C.3   1  noname   -0.798701
    2   C2        -0.670155609    -0.000008983    -0.347164390     C.2   1  noname    0.897478
    3   O3        -1.822578621    -0.000032046    -0.775652577     O.2   1  noname   -0.547059
    4   C4        -0.405334548     0.000001854     1.089439090     C.1   1  noname   -0.231416
    5   C5        -0.180638533     0.000009642     2.291362178     C.1   1  noname   -0.295101
    6   H6         1.156266123     0.882141602    -1.037664702       H   1  noname    0.221978
    7   H7         1.156230027    -0.882176421    -1.037724968       H   1  noname    0.221981
    8   H8         0.220060854     0.000044377    -2.283475808       H   1  noname    0.216667
    9   H9         0.003893362     0.000019816     3.342602259       H   1  noname    0.314174


@<TRIPOS>BOND
    1      1      2    1
    2      2      3    2
    3      2      4    1
    4      4      5    3
    5      1      6    1
    6      1      7    1
    7      1      8    1
    8      5      9    1
#
#	File Created by: Spartan'20 Export
#

@<TRIPOS>MOLECULE
M0083
12 11
SMALL
USER_CHARGES


@<TRIPOS>ATOM
    1   C1        -0.561331345    -0.000012873    -1.890287659     C.3   1  noname   -0.714687
    2   C2         0.340841455     0.000048720    -0.687011119     C.2   1  noname    0.612865
    3   O3         1.569130569     0.000107758    -0.745651830     O.2   1  noname   -0.508871
    4   C4        -0.340844478     0.000036375     0.687005655     C.2   1  noname    0.612863
    5   O5        -1.569134597     0.000042142     0.745638810     O.2   1  noname   -0.508869
    6   C6         0.561330771    -0.000024844     1.890288077     C.3   1  noname   -0.714692
    7   H7        -1.211970427    -0.878131798    -1.871421747       H   1  noname    0.198885
    8   H8        -1.212181901     0.877954612    -1.871371216       H   1  noname    0.198883
    9   H9         0.048305450     0.000078722    -2.793471522       H   1  noname    0.212926
   10   H10        1.212214687     0.877927992     1.871363044       H   1  noname    0.198879
   11   H11        1.211956126    -0.878151922     1.871454815       H   1  noname    0.198892
   12   H12       -0.048316310     0.000125116     2.793464691       H   1  noname    0.212926


@<TRIPOS>BOND
    1      1      2    1
    2      2      3    2
    3      2      4    1
    4      4      5    2
    5      4      6    1
    6      1      7    1
    7      1      8    1
    8      1      9    1
    9      6     10    1
   10      6     11    1
   11      6     12    1
#
#	File Created by: Spartan'20 Export
#

@<TRIPOS>MOLECULE
M0084
10 9
SMALL
USER_CHARGES


@<TRIPOS>ATOM
    1   C1        -1.335900108    -0.215986202    -0.098322906     C.3   1  noname   -0.768243
    2   C2        -0.083167513     0.596785801    -0.307889529     C.2   1  noname    0.734519
    3   O3        -0.074718669     1.684157025    -0.854529311     O.2   1  noname   -0.496118
    4   C4         1.253685361    -0.025925805     0.206860061     C.3   1  noname    0.030780
    5   Cl5        1.171344261    -0.033161872     1.985692962      Cl   1  noname   -0.053104
    6   Cl6        2.631696376     0.919902053    -0.329044079      Cl   1  noname   -0.042815
    7   Cl7        1.380978562    -1.691299497    -0.402090634      Cl   1  noname   -0.055253
    8   H8        -1.465060818    -0.891517369    -0.947149097       H   1  noname    0.219259
    9   H9        -2.179580867     0.474358532    -0.064923965       H   1  noname    0.235504
   10   H10       -1.299276585    -0.817312665     0.811396497       H   1  noname    0.195471


@<TRIPOS>BOND
    1      1      2    1
    2      2      3    2
    3      2      4    1
    4      4      5    1
    5      4      6    1
    6      4      7    1
    7      1      8    1
    8      1      9    1
    9      1     10    1
#
#	File Created by: Spartan'20 Export
#

@<TRIPOS>MOLECULE
M0085
10 9
SMALL
USER_CHARGES


@<TRIPOS>ATOM
    1   C1        -1.291791552     0.032702275    -0.289377846     C.3   1  noname   -0.709547
    2   C2        -0.132149952    -0.000337599     0.668567446     C.2   1  noname    0.742709
    3   O3        -0.252891506     0.000094245     1.886386632     O.2   1  noname   -0.521189
    4   C4         1.289397746    -0.044702696     0.092777320     C.3   1  noname   -0.161242
    5   Cl5        1.664169776     1.515639418    -0.668165618      Cl   1  noname   -0.074932
    6   Cl6        1.475418715    -1.395583745    -1.041489906      Cl   1  noname   -0.076406
    7   H7        -2.175498117     0.374606187     0.250078302       H   1  noname    0.214613
    8   H8        -1.087754853     0.685241449    -1.141307452       H   1  noname    0.192930
    9   H9        -1.474421896    -0.975127730    -0.673843391       H   1  noname    0.199303
   10   H10        1.985521639    -0.192531803     0.916374515       H   1  noname    0.193761


@<TRIPOS>BOND
    1      1      2    1
    2      2      3    2
    3      2      4    1
    4      4      5    1
    5      4      6    1
    6      1      7    1
    7      1      8    1
    8      1      9    1
    9      4     10    1
#
#	File Created by: Spartan'20 Export
#

@<TRIPOS>MOLECULE
M0086
10 9
SMALL
USER_CHARGES


@<TRIPOS>ATOM
    1   C1         0.360490717    -0.000025857     1.267853337     C.3   1  noname   -0.672385
    2   C2        -0.654783343    -0.000006896     0.161489469     C.2   1  noname    0.644346
    3   O3        -1.866915585    -0.000044643     0.309829258     O.2   1  noname   -0.477810
    4   C4        -0.073064857     0.000037251    -1.262082804     C.3   1  noname    0.482936
    5   F5        -1.024855404    -0.000065675    -2.198308030       F   1  noname   -0.186564
    6   F6         0.706950506    -1.092474687    -1.438287162       F   1  noname   -0.197713
    7   F7         0.706754764     1.092681114    -1.438326068       F   1  noname   -0.197710
    8   H8         1.001457595     0.882079885     1.185529118       H   1  noname    0.195965
    9   H9         1.001199906    -0.882323234     1.185706245       H   1  noname    0.195977
   10   H10       -0.157234298     0.000142743     2.226596639       H   1  noname    0.212958


@<TRIPOS>BOND
    1      1      2    1
    2      2      3    2
    3      2      4    1
    4      4      5    1
    5      4      6    1
    6      4      7    1
    7      1      8    1
    8      1      9    1
    9      1     10    1
#
#	File Created by: Spartan'20 Export
#

@<TRIPOS>MOLECULE
M0087
10 9
SMALL
USER_CHARGES


@<TRIPOS>ATOM
    1   C1        -1.269958140     0.093866192    -0.330835237     C.3   1  noname   -0.783617
    2   C2        -0.071405765     0.395939937     0.529728323     C.2   1  noname    0.893741
    3   O3        -0.125595608     1.117923019     1.519119076     O.2   1  noname   -0.581216
    4   C4         1.287660125    -0.161558828     0.119458824     C.3   1  noname   -0.440108
    5   Cl5        1.217274464    -1.806425047    -0.567533826      Cl   1  noname   -0.116394
    6   H6        -2.089097255     0.744451090    -0.024492671       H   1  noname    0.215123
    7   H7        -1.038183215     0.243882498    -1.388466284       H   1  noname    0.204103
    8   H8        -1.567231988    -0.951470269    -0.211853559       H   1  noname    0.212922
    9   H9         1.722475560     0.494562020    -0.640936018       H   1  noname    0.195090
   10   H10        1.934061821    -0.171170612     0.995811371       H   1  noname    0.200357


@<TRIPOS>BOND
    1      1      2    1
    2      2      3    2
    3      2      4    1
    4      4      5    1
    5      1      6    1
    6      1      7    1
    7      1      8    1
    8      4      9    1
    9      4     10    1
#
#	File Created by: Spartan'20 Export
#

@<TRIPOS>MOLECULE
M0088
9 8
SMALL
USER_CHARGES


@<TRIPOS>ATOM
    1   C1        -1.087357189    -0.153760010    -0.146055325     C.3   1  noname   -0.753710
    2   C2         0.196105496     0.456511246     0.379166202     C.2   1  noname    0.961471
    3   O3         0.222895752     1.340079128     1.232453033     O.2   1  noname   -0.637472
    4   N4         1.341711572    -0.040544013    -0.193151701    N.am   1  noname   -1.019882
    5   H5        -1.095705638    -0.176018329    -1.239012518       H   1  noname    0.210346
    6   H6        -1.194220765    -1.180905228     0.217066476       H   1  noname    0.194501
    7   H7        -1.925442443     0.438875150     0.217331387       H   1  noname    0.208608
    8   H8         2.214465611     0.221171302     0.245991084       H   1  noname    0.416154
    9   H9         1.327547604    -0.905409245    -0.713788637       H   1  noname    0.419984


@<TRIPOS>BOND
    1      1      2    1
    2      2      3    2
    3      2      4    am
    4      1      5    1
    5      1      6    1
    6      1      7    1
    7      4      8    1
    8      4      9    1
#
#	File Created by: Spartan'20 Export
#

@<TRIPOS>MOLECULE
M0089
15 14
SMALL
USER_CHARGES


@<TRIPOS>ATOM
    1   C1         2.001403342    -0.168711428     0.257752548     C.3   1  noname   -0.710191
    2   C2         0.746896622     0.659105459     0.472857691     C.2   1  noname    0.724769
    3   O3         0.800240585     1.744688859     1.061139165     O.2   1  noname   -0.619317
    4   N4        -0.433427912     0.153103880    -0.016292099    N.am   1  noname    0.033139
    5   C5        -0.589652261    -1.119330546    -0.692832120     C.3   1  noname   -0.571648
    6   C6        -1.661250594     0.901783177     0.188279049     C.3   1  noname   -0.618092
    7   H7         1.924889234    -1.155888017     0.722648292       H   1  noname    0.193745
    8   H8         2.219211694    -0.307166826    -0.805734324       H   1  noname    0.191834
    9   H9         2.822179339     0.379595665     0.719082250       H   1  noname    0.207458
   10   H10        0.372740431    -1.594634254    -0.864766319       H   1  noname    0.188085
   11   H11       -1.076880709    -0.968932371    -1.663444641       H   1  noname    0.188753
   12   H12       -1.214709517    -1.799061651    -0.099891177       H   1  noname    0.185174
   13   H13       -1.412761742     1.828880488     0.701467440       H   1  noname    0.220865
   14   H14       -2.366028118     0.320702929     0.795331501       H   1  noname    0.193457
   15   H15       -2.132850393     1.125864636    -0.775597257       H   1  noname    0.191969


@<TRIPOS>BOND
    1      1      2    1
    2      2      3    2
    3      2      4    am
    4      4      5    1
    5      4      6    1
    6      1      7    1
    7      1      8    1
    8      1      9    1
    9      5     10    1
   10      5     11    1
   11      5     12    1
   12      6     13    1
   13      6     14    1
   14      6     15    1
#
#	File Created by: Spartan'20 Export
#

@<TRIPOS>MOLECULE
M0090
22 22
SMALL
USER_CHARGES


@<TRIPOS>ATOM
    1   C1        -3.175141199     0.732072067    -0.198834960     C.3   1  noname   -0.752836
    2   C2        -1.679666693     0.979281385    -0.152094680     C.2   1  noname    0.827784
    3   O3        -1.221579072     2.122599943    -0.122929000     O.2   1  noname   -0.617738
    4   N4        -0.870155667    -0.146485376    -0.161371481    N.am   1  noname   -0.299374
    5   C5        -1.423263174    -1.496248388    -0.079344747     C.3   1  noname   -0.496287
    6   C6         0.540395335    -0.000967319    -0.008992919     C.2   1  noname    0.360489
    7   C7         1.219017149    -0.782262384     0.934814870     C.2   1  noname   -0.296872
    8   C8         2.605975864    -0.683765469     1.055819215     C.2   1  noname   -0.094352
    9   C9         3.321256206     0.202024335     0.249286259     C.2   1  noname   -0.207281
   10   C10        2.638948248     0.987007081    -0.683691080     C.2   1  noname   -0.045540
   11   C11        1.256017075     0.884195328    -0.825712556     C.2   1  noname   -0.314251
   12   H12       -3.473089442     0.257465483    -1.138247557       H   1  noname    0.207372
   13   H13       -3.512577059     0.096191634     0.623242254       H   1  noname    0.211643
   14   H14       -3.659366052     1.704898183    -0.124898629       H   1  noname    0.210421
   15   H15       -2.294791891    -1.587013886    -0.729109705       H   1  noname    0.183220
   16   H16       -0.663364408    -2.194232872    -0.432612834       H   1  noname    0.189924
   17   H17       -1.714306821    -1.777583998     0.940168201       H   1  noname    0.169268
   18   H18        0.665047310    -1.454032643     1.585466000       H   1  noname    0.172143
   19   H19        3.124341572    -1.295643835     1.789614282       H   1  noname    0.134805
   20   H20        4.400628946     0.282788381     0.348225585       H   1  noname    0.145313
   21   H21        3.188371758     1.678559568    -1.317436076       H   1  noname    0.126699
   22   H22        0.727302013     1.491152781    -1.551360442       H   1  noname    0.185451


@<TRIPOS>BOND
    1      1      2    1
    2      2      3    2
    3      2      4    am
    4      4      5    1
    5      4      6    1
    6      6      7    2
    7      7      8    1
    8      8      9    2
    9      9     10    1
   10     10     11    2
   11     11      6    1
   12      1     12    1
   13      1     13    1
   14      1     14    1
   15      5     15    1
   16      5     16    1
   17      5     17    1
   18      7     18    1
   19      8     19    1
   20      9     20    1
   21     10     21    1
   22     11     22    1
#
#	File Created by: Spartan'20 Export
#

@<TRIPOS>MOLECULE
M0091
41 42
SMALL
USER_CHARGES


@<TRIPOS>ATOM
    1   C1         1.026506260    -3.270352136     0.388370484     C.3   1  noname   -0.755792
    2   C2        -0.182592345    -2.348083585     0.360338464     C.2   1  noname    0.923229
    3   O3        -1.317186636    -2.815246740     0.538279198     O.2   1  noname   -0.660515
    4   N4         0.022448593    -1.010523750     0.131889886    N.am   1  noname   -0.926665
    5   C5        -1.145823279    -0.112589836     0.102706574     C.3   1  noname    0.710397
    6   C6        -1.909000033    -0.051171191     1.426822339     C.3   1  noname   -0.344178
    7   C7        -2.882239227     1.140528077     1.403228742     C.3   1  noname   -0.193020
    8   C8        -3.476313406     1.379910478    -0.000573194     C.3   1  noname   -0.187351
    9   C9        -3.513274936     0.076509336    -0.796300855     C.3   1  noname   -0.155660
   10   C10       -2.087896429    -0.421334766    -1.079144953     C.3   1  noname   -0.328164
   11   C11        1.346701585    -0.416708598    -0.073276174     C.3   1  noname    0.718523
   12   C12        1.479643431     0.233593904    -1.453920080     C.3   1  noname   -0.335083
   13   C13        2.888896054     0.795651071    -1.656518196     C.3   1  noname   -0.184923
   14   C14        3.256000869     1.778916180    -0.545173468     C.3   1  noname   -0.151497
   15   C15        3.129762734     1.121670267     0.829078510     C.3   1  noname   -0.225769
   16   C16        1.722824192     0.559270479     1.046282404     C.3   1  noname   -0.293776
   17   H17        1.566034968    -3.272209287    -0.563606118       H   1  noname    0.192193
   18   H18        0.643148892    -4.272839029     0.580116655       H   1  noname    0.209807
   19   H19        1.731372066    -3.001378791     1.180985165       H   1  noname    0.189039
   20   H20       -0.730757023     0.888572787    -0.056321598       H   1  noname   -0.018587
   21   H21       -1.199546286     0.048482837     2.256056882       H   1  noname    0.072703
   22   H22       -2.439235045    -0.993116556     1.573271843       H   1  noname    0.156657
   23   H23       -2.369876046     2.047689092     1.744515699       H   1  noname    0.066656
   24   H24       -3.688807290     0.954454817     2.120682151       H   1  noname    0.100885
   25   H25       -2.868211059     2.110987054    -0.550034808       H   1  noname    0.076512
   26   H26       -4.477489823     1.818394054     0.082368689       H   1  noname    0.079935
   27   H27       -4.059176848    -0.681512924    -0.222200787       H   1  noname    0.106071
   28   H28       -4.058794514     0.206261151    -1.738086006       H   1  noname    0.076562
   29   H29       -1.690541098     0.065354079    -1.979179309       H   1  noname    0.060384
   30   H30       -2.099663906    -1.497252534    -1.261770983       H   1  noname    0.127305
   31   H31        2.073243254    -1.232513153    -0.039139980       H   1  noname   -0.006668
   32   H32        0.750675395     1.048059382    -1.553877151       H   1  noname    0.104325
   33   H33        1.237100346    -0.508986900    -2.223830382       H   1  noname    0.084005
   34   H34        2.960371953     1.280141396    -2.637527898       H   1  noname    0.093467
   35   H35        3.613204821    -0.030833854    -1.662031371       H   1  noname    0.079842
   36   H36        4.273971956     2.158722840    -0.693504794       H   1  noname    0.076815
   37   H37        2.584545462     2.647316795    -0.594082830       H   1  noname    0.091474
   38   H38        3.863325898     0.307305531     0.908993117       H   1  noname    0.086536
   39   H39        3.372060630     1.838966083     1.622076648       H   1  noname    0.100952
   40   H40        1.003302163     1.387850375     1.073082352       H   1  noname    0.103471
   41   H41        1.651283707     0.042045563     2.010955131       H   1  noname    0.079902


@<TRIPOS>BOND
    1      1      2    1
    2      2      3    2
    3      2      4    am
    4      4      5    1
    5      5      6    1
    6      6      7    1
    7      7      8    1
    8      8      9    1
    9      9     10    1
   10      4     11    1
   11     11     12    1
   12     12     13    1
   13     13     14    1
   14     14     15    1
   15     15     16    1
   16     10      5    1
   17     16     11    1
   18      1     17    1
   19      1     18    1
   20      1     19    1
   21      5     20    1
   22      6     21    1
   23      6     22    1
   24      7     23    1
   25      7     24    1
   26      8     25    1
   27      8     26    1
   28      9     27    1
   29      9     28    1
   30     10     29    1
   31     10     30    1
   32     11     31    1
   33     12     32    1
   34     12     33    1
   35     13     34    1
   36     13     35    1
   37     14     36    1
   38     14     37    1
   39     15     38    1
   40     15     39    1
   41     16     40    1
   42     16     41    1
#
#	File Created by: Spartan'20 Export
#

@<TRIPOS>MOLECULE
M0092
29 30
SMALL
USER_CHARGES


@<TRIPOS>ATOM
    1   C1         0.979620692     2.750980187     1.102538241     C.3   1  noname   -0.794733
    2   C2        -0.327495275     2.064032774     0.760729820     C.2   1  noname    0.922523
    3   O3        -1.413386318     2.619763353     0.920923996     O.2   1  noname   -0.619525
    4   N4        -0.230632993     0.762483311     0.272814995    N.am   1  noname   -0.726363
    5   C5         1.025887472     0.139862280    -0.000045539     C.2   1  noname    0.712052
    6   C6         1.839456659     0.601007893    -1.040728163     C.2   1  noname   -0.367642
    7   C7         3.061682533    -0.025698674    -1.292634147     C.2   1  noname   -0.102676
    8   C8         3.458335999    -1.125373241    -0.528253914     C.2   1  noname   -0.216606
    9   C9         2.630583670    -1.597569055     0.495364857     C.2   1  noname   -0.044011
   10   C10        1.415519585    -0.968172093     0.762499497     C.2   1  noname   -0.451777
   11   C11       -1.401857869    -0.014794071     0.011456268     C.2   1  noname    0.493560
   12   C12       -2.458061686    -0.057333234     0.929573702     C.2   1  noname   -0.343856
   13   C13       -3.570633295    -0.853062170     0.656814518     C.2   1  noname   -0.055331
   14   C14       -3.629935824    -1.623117800    -0.507073576     C.2   1  noname   -0.228800
   15   C15       -2.568323237    -1.583317575    -1.412656135     C.2   1  noname   -0.054202
   16   C16       -1.456828481    -0.779694021    -1.160162919     C.2   1  noname   -0.356705
   17   H17        0.731894155     3.603645827     1.735964571       H   1  noname    0.215825
   18   H18        1.671462884     2.084711101     1.621314079       H   1  noname    0.198120
   19   H19        1.479381646     3.119199564     0.202994811       H   1  noname    0.211449
   20   H20        1.505973458     1.439145701    -1.648589859       H   1  noname    0.177974
   21   H21        3.696332933     0.336253119    -2.098235749       H   1  noname    0.151060
   22   H22        4.407089733    -1.615752337    -0.730866437       H   1  noname    0.157519
   23   H23        2.934257505    -2.456523420     1.089298858       H   1  noname    0.142912
   24   H24        0.761159960    -1.321571356     1.556371272       H   1  noname    0.198373
   25   H25       -2.415443788     0.543838746     1.830519705       H   1  noname    0.202322
   26   H26       -4.391310807    -0.880070176     1.368255354       H   1  noname    0.132067
   27   H27       -4.498014058    -2.245790095    -0.708434972       H   1  noname    0.149668
   28   H28       -2.604890754    -2.175815538    -2.323268442       H   1  noname    0.133024
   29   H29       -0.631824498    -0.741269004    -1.866484690       H   1  noname    0.163779


@<TRIPOS>BOND
    1      1      2    1
    2      2      3    2
    3      2      4    am
    4      4      5    1
    5      5      6    2
    6      6      7    1
    7      7      8    2
    8      8      9    1
    9      9     10    2
   10      4     11    1
   11     11     12    2
   12     12     13    1
   13     13     14    2
   14     14     15    1
   15     15     16    2
   16     10      5    1
   17     16     11    1
   18      1     17    1
   19      1     18    1
   20      1     19    1
   21      6     20    1
   22      7     21    1
   23      8     22    1
   24      9     23    1
   25     10     24    1
   26     12     25    1
   27     13     26    1
   28     14     27    1
   29     15     28    1
   30     16     29    1
#
#	File Created by: Spartan'20 Export
#

@<TRIPOS>MOLECULE
M0093
12 11
SMALL
USER_CHARGES


@<TRIPOS>ATOM
    1   C1         1.900648100     0.014863423    -0.031751106     C.3   1  noname   -0.909918
    2   C2         0.486358161    -0.442301869     0.264838770     C.2   1  noname    0.867490
    3   O3         0.260010466    -1.468503589     0.909347079     O.2   1  noname   -0.619139
    4   N4        -0.502597497     0.362337435    -0.228110135    N.am   1  noname   -0.523517
    5   C5        -1.907830722     0.070778721    -0.020577356     C.3   1  noname   -0.326572
    6   H6         2.426968543    -0.794952304    -0.541146900       H   1  noname    0.254740
    7   H7         2.413729413     0.198210230     0.915065527       H   1  noname    0.254901
    8   H8         1.949899330     0.917630071    -0.645923149       H   1  noname    0.211168
    9   H9        -0.245694585     1.193672840    -0.740535849       H   1  noname    0.345846
   10   H10       -2.431559185    -0.035754830    -0.974975350       H   1  noname    0.134584
   11   H11       -2.391719583     0.854962011     0.568591111       H   1  noname    0.134927
   12   H12       -1.958212442    -0.870942138     0.525177358       H   1  noname    0.175491


@<TRIPOS>BOND
    1      1      2    1
    2      2      3    2
    3      2      4    am
    4      4      5    1
    5      1      6    1
    6      1      7    1
    7      1      8    1
    8      4      9    1
    9      5     10    1
   10      5     11    1
   11      5     12    1
#
#	File Created by: Spartan'20 Export
#

@<TRIPOS>MOLECULE
M0094
11 10
SMALL
USER_CHARGES


@<TRIPOS>ATOM
    1   C1         0.360169376    -0.000009052     1.799911276     C.3   1  noname   -0.918046
    2   C2        -0.350217399     0.000002379     0.473879236     C.2   1  noname    1.020249
    3   O3        -1.557984811     0.000043798     0.307149734     O.2   1  noname   -0.615184
    4   O4         0.546262904    -0.000040162    -0.546611847     O.3   1  noname   -0.407278
    5   C5        -0.055394666    -0.000008494    -1.856015679     C.3   1  noname   -0.304627
    6   H6         0.999437253     0.882027570     1.878269596       H   1  noname    0.247693
    7   H7         0.999492617    -0.881991425     1.878242197       H   1  noname    0.247701
    8   H8        -0.377580384    -0.000022872     2.600637515       H   1  noname    0.242822
    9   H9        -0.672502735    -0.889013296    -1.991799453       H   1  noname    0.155996
   10   H10       -0.672499447     0.889010711    -1.991772138       H   1  noname    0.155994
   11   H11        0.780817292     0.000000843    -2.551890438       H   1  noname    0.174680


@<TRIPOS>BOND
    1      1      2    1
    2      2      3    2
    3      2      4    1
    4      4      5    1
    5      1      6    1
    6      1      7    1
    7      1      8    1
    8      5      9    1
    9      5     10    1
   10      5     11    1
#
#	File Created by: Spartan'20 Export
#

@<TRIPOS>MOLECULE
M0095
20 19
SMALL
USER_CHARGES


@<TRIPOS>ATOM
    1   C1         0.744226208     0.000007118     2.882590616     C.3   1  noname   -0.800280
    2   C2        -0.158503101     0.000015083     1.674662854     C.2   1  noname    0.988186
    3   O3        -1.378795208     0.000047277     1.717740893     O.2   1  noname   -0.631141
    4   O4         0.593241080    -0.000002590     0.546735161     O.3   1  noname   -0.632888
    5   C5        -0.046390472    -0.000001565    -0.778043103     C.3   1  noname    1.090543
    6   C6        -0.872566558     1.266412439    -0.959147971     C.3   1  noname   -0.802580
    7   C7         1.152920285    -0.000011355    -1.714353365     C.3   1  noname   -0.752295
    8   C8        -0.872577397    -1.266410252    -0.959139466     C.3   1  noname   -0.802580
    9   H9         0.134393930    -0.000117089     3.785280588       H   1  noname    0.211407
   10   H10        1.388583400     0.882069108     2.863727743       H   1  noname    0.223905
   11   H11        1.388715480    -0.881978050     2.863615622       H   1  noname    0.223892
   12   H12       -1.225369916     1.324742102    -1.993626314       H   1  noname    0.180605
   13   H13       -0.253521775     2.145398736    -0.756747296       H   1  noname    0.179291
   14   H14       -1.733164754     1.272519063    -0.290757353       H   1  noname    0.213252
   15   H15        0.815960505    -0.000017234    -2.755045326       H   1  noname    0.172745
   16   H16        1.767469302    -0.887731743    -1.543192938       H   1  noname    0.182395
   17   H17        1.767474302     0.887707280    -1.543205033       H   1  noname    0.182395
   18   H18       -1.733168954    -1.272509965    -0.290738436       H   1  noname    0.213248
   19   H19       -0.253537099    -2.145399555    -0.756742435       H   1  noname    0.179291
   20   H20       -1.225389258    -1.324738809    -1.993614439       H   1  noname    0.180607


@<TRIPOS>BOND
    1      1      2    1
    2      2      3    2
    3      2      4    1
    4      4      5    1
    5      5      6    1
    6      5      7    1
    7      5      8    1
    8      1      9    1
    9      1     10    1
   10      1     11    1
   11      6     12    1
   12      6     13    1
   13      6     14    1
   14      7     15    1
   15      7     16    1
   16      7     17    1
   17      8     18    1
   18      8     19    1
   19      8     20    1
#
#	File Created by: Spartan'20 Export
#

@<TRIPOS>MOLECULE
M0096
18 18
SMALL
USER_CHARGES


@<TRIPOS>ATOM
    1   C1         0.842383669     0.000170804    -2.900648051     C.3   1  noname   -0.687775
    2   C2        -0.413002137    -0.000138123    -2.058656281     C.2   1  noname    0.682137
    3   O3        -1.528594774    -0.000400042    -2.580617217     O.2   1  noname   -0.531090
    4   C4        -0.284364526    -0.000125904    -0.564455386     C.2   1  noname   -0.054638
    5   C5         0.957367061    -0.000209914     0.087525077     C.2   1  noname   -0.127266
    6   C6         1.023764785    -0.000164858     1.478242418     C.2   1  noname   -0.239199
    7   C7        -0.161535454    -0.000022363     2.228645101     C.2   1  noname    0.206422
    8   C8        -1.409930999     0.000035142     1.583996631     C.2   1  noname   -0.214967
    9   C9        -1.463615087    -0.000028732     0.196017147     C.2   1  noname   -0.110827
   10   C10       -0.097194638     0.000137557     3.663113617     C.1   1  noname    0.191630
   11   N11       -0.046476717     0.000358657     4.846537286     N.1   1  noname   -0.377879
   12   H12        1.451200149    -0.884367781    -2.692341910       H   1  noname    0.186292
   13   H13        1.451051347     0.884753262    -2.691961237       H   1  noname    0.186219
   14   H14        0.550473471     0.000382174    -3.950846731       H   1  noname    0.208215
   15   H15        1.882472298    -0.000308431    -0.481532586       H   1  noname    0.151898
   16   H16        1.983991539    -0.000220821     1.987123507       H   1  noname    0.188204
   17   H17       -2.321717776     0.000141828     2.175343808       H   1  noname    0.183144
   18   H18       -2.416272213     0.000007546    -0.325485193       H   1  noname    0.159478


@<TRIPOS>BOND
    1      1      2    1
    2      2      3    2
    3      2      4    1
    4      4      5    2
    5      5      6    1
    6      6      7    2
    7      7      8    1
    8      8      9    2
    9      7     10    1
   10     10     11    3
   11      9      4    1
   12      1     12    1
   13      1     13    1
   14      1     14    1
   15      5     15    1
   16      6     16    1
   17      8     17    1
   18      9     18    1
#
#	File Created by: Spartan'20 Export
#

@<TRIPOS>MOLECULE
M0097
22 22
SMALL
USER_CHARGES


@<TRIPOS>ATOM
    1   C1        -1.045997053     0.000469757     3.741504313     C.3   1  noname   -0.683451
    2   C2         0.207098683    -0.000275849     2.894576021     C.2   1  noname    0.672034
    3   O3         1.323549666    -0.000888000     3.416603534     O.2   1  noname   -0.534394
    4   C4         0.070882951    -0.000272216     1.402800204     C.2   1  noname   -0.033384
    5   C5        -1.174676512    -0.000316381     0.756153277     C.2   1  noname   -0.148615
    6   C6        -1.242213453    -0.000320094    -0.633278431     C.2   1  noname   -0.148457
    7   C7        -0.069364452    -0.000210617    -1.401819168     C.2   1  noname   -0.033944
    8   C8         1.176209005    -0.000171444    -0.755153216     C.2   1  noname   -0.148159
    9   C9         1.243728930    -0.000237652     0.634234401     C.2   1  noname   -0.148976
   10   C10       -0.207009739    -0.000131529    -2.893572292     C.2   1  noname    0.672516
   11   O11       -1.324344493    -0.000487840    -3.413596026     O.2   1  noname   -0.534387
   12   C12        1.044391174     0.000403760    -3.743144183     C.3   1  noname   -0.684410
   13   H13       -1.655229632     0.884774272     3.533907520       H   1  noname    0.185447
   14   H14       -1.655752455    -0.883593685     3.534587251       H   1  noname    0.185493
   15   H15       -0.750669133     0.000793771     4.790742582       H   1  noname    0.205018
   16   H16       -2.096357321    -0.000374847     1.331173375       H   1  noname    0.145475
   17   H17       -2.197968171    -0.000389413    -1.149428720       H   1  noname    0.155050
   18   H18        2.098218788    -0.000105338    -1.329764264       H   1  noname    0.145403
   19   H19        2.199854256    -0.000256501     1.149838233       H   1  noname    0.155084
   20   H20        1.654763998    -0.883668985    -3.537543671       H   1  noname    0.185699
   21   H21        0.746578558     0.000547496    -4.791662995       H   1  noname    0.205275
   22   H22        1.654306406     0.884711334    -3.537157743       H   1  noname    0.185683


@<TRIPOS>BOND
    1      1      2    1
    2      2      3    2
    3      2      4    1
    4      4      5    2
    5      5      6    1
    6      6      7    2
    7      7      8    1
    8      8      9    2
    9      7     10    1
   10     10     11    2
   11     10     12    1
   12      9      4    1
   13      1     13    1
   14      1     14    1
   15      1     15    1
   16      5     16    1
   17      6     17    1
   18      8     18    1
   19      9     19    1
   20     12     20    1
   21     12     21    1
   22     12     22    1
#
#	File Created by: Spartan'20 Export
#

@<TRIPOS>MOLECULE
M0098
20 20
SMALL
USER_CHARGES


@<TRIPOS>ATOM
    1   C1        -3.320582062    -0.108572460    -0.724982937     C.3   1  noname   -0.673573
    2   C2        -2.434272596    -0.036557205     0.497624639     C.2   1  noname    0.675637
    3   O3        -2.918091172    -0.005515578     1.630109051     O.2   1  noname   -0.531866
    4   C4        -0.946871467    -0.002392952     0.313687400     C.2   1  noname   -0.058219
    5   C5        -0.341340931    -0.039376292    -0.950415573     C.2   1  noname   -0.132804
    6   C6         1.047119250    -0.002576858    -1.066730359     C.2   1  noname   -0.205861
    7   C7         1.834301736     0.075690130     0.084385332     C.2   1  noname    0.079694
    8   C8         1.241991049     0.111757053     1.350958323     C.2   1  noname   -0.187297
    9   C9        -0.143879405     0.074454865     1.460970881     C.2   1  noname   -0.110720
   10   C10        3.325922077     0.048285709    -0.040601765     C.3   1  noname    0.525845
   11   F11        3.798178934    -1.221979722    -0.068431577       F   1  noname   -0.202963
   12   F12        3.745216828     0.650188288    -1.178884326       F   1  noname   -0.199147
   13   F13        3.931591878     0.673655854     0.995855695       F   1  noname   -0.198719
   14   H14       -3.157190958     0.755121474    -1.376078059       H   1  noname    0.183238
   15   H15       -4.359212823    -0.124736821    -0.394436119       H   1  noname    0.203271
   16   H16       -3.109132339    -1.010936475    -1.306154246       H   1  noname    0.184333
   17   H17       -0.943718183    -0.094747007    -1.852462610       H   1  noname    0.149749
   18   H18        1.516760089    -0.025157847    -2.045620094       H   1  noname    0.172729
   19   H19        1.862798075     0.177578618     2.239484429       H   1  noname    0.169963
   20   H20       -0.629587981     0.105817225     2.431721914       H   1  noname    0.156710


@<TRIPOS>BOND
    1      1      2    1
    2      2      3    2
    3      2      4    1
    4      4      5    2
    5      5      6    1
    6      6      7    2
    7      7      8    1
    8      8      9    2
    9      7     10    1
   10     10     11    1
   11     10     12    1
   12     10     13    1
   13      9      4    1
   14      1     14    1
   15      1     15    1
   16      1     16    1
   17      5     17    1
   18      6     18    1
   19      8     19    1
   20      9     20    1
#
#	File Created by: Spartan'20 Export
#

@<TRIPOS>MOLECULE
M0099
17 17
SMALL
USER_CHARGES


@<TRIPOS>ATOM
    1   C1         0.799595164     0.000093275    -2.644844074     C.3   1  noname   -0.689160
    2   C2        -0.444293024    -0.000124119    -1.783521272     C.2   1  noname    0.705070
    3   O3        -1.565776228    -0.000355548    -2.293856496     O.2   1  noname   -0.547841
    4   C4        -0.293349581    -0.000064982    -0.294430578     C.2   1  noname   -0.118014
    5   C5         0.956252204    -0.000102945     0.340276300     C.2   1  noname   -0.110825
    6   C6         1.043624501    -0.000062317     1.731464479     C.2   1  noname   -0.226293
    7   C7        -0.127454632     0.000040727     2.489191793     C.2   1  noname    0.208043
    8   C8        -1.381995859     0.000077893     1.874480157     C.2   1  noname   -0.212907
    9   C9        -1.458136913     0.000014218     0.486051838     C.2   1  noname   -0.083838
   10   Cl10      -0.023901807     0.000126358     4.224456289      Cl   1  noname   -0.129915
   11   H11        1.411438567    -0.884351944    -2.446109361       H   1  noname    0.184211
   12   H12        0.491130988     0.000230759    -3.690128554       H   1  noname    0.204094
   13   H13        1.411330993     0.884588797    -2.445854801       H   1  noname    0.184190
   14   H14        1.874761279    -0.000180725    -0.239534329       H   1  noname    0.150187
   15   H15        2.009827325    -0.000103335     2.227407725       H   1  noname    0.164410
   16   H16       -2.282410546     0.000153427     2.481842499       H   1  noname    0.162192
   17   H17       -2.420642431     0.000020462    -0.016891616       H   1  noname    0.156396


@<TRIPOS>BOND
    1      1      2    1
    2      2      3    2
    3      2      4    1
    4      4      5    2
    5      5      6    1
    6      6      7    2
    7      7      8    1
    8      8      9    2
    9      7     10    1
   10      9      4    1
   11      1     11    1
   12      1     12    1
   13      1     13    1
   14      5     14    1
   15      6     15    1
   16      8     16    1
   17      9     17    1
#
#	File Created by: Spartan'20 Export
#

@<TRIPOS>MOLECULE
M0100
17 17
SMALL
USER_CHARGES


@<TRIPOS>ATOM
    1   C1         0.798153662     0.000078417     2.620994414     C.3   1  noname   -0.699327
    2   C2        -0.445576588    -0.000075219     1.758861174     C.2   1  noname    0.730404
    3   O3        -1.566373564    -0.000193058     2.270667271     O.2   1  noname   -0.556271
    4   C4        -0.293199826    -0.000049222     0.270900166     C.2   1  noname   -0.200204
    5   C5         0.959119445    -0.000084897    -0.360375203     C.2   1  noname   -0.032968
    6   C6         1.050125083    -0.000067616    -1.751640218     C.2   1  noname   -0.395425
    7   C7        -0.124010339     0.000017884    -2.494605387     C.2   1  noname    0.511984
    8   C8        -1.381683958     0.000060559    -1.899020937     C.2   1  noname   -0.372753
    9   C9        -1.458489428     0.000016313    -0.510544140     C.2   1  noname   -0.013318
   10   F10       -0.040703750     0.000061454    -3.847432944       F   1  noname   -0.252762
   11   H11        1.410668365    -0.884159315     2.422181957       H   1  noname    0.185376
   12   H12        1.410421791     0.884499485     2.422225593       H   1  noname    0.185383
   13   H13        0.489072255    -0.000010821     3.666341732       H   1  noname    0.205869
   14   H14        1.874934719    -0.000140290     0.223408267       H   1  noname    0.145758
   15   H15        2.007726920    -0.000109442    -2.262991605       H   1  noname    0.204817
   16   H16       -2.270129416     0.000127481    -2.523006998       H   1  noname    0.200824
   17   H17       -2.420055371     0.000028287    -0.005963142       H   1  noname    0.152614


@<TRIPOS>BOND
    1      1      2    1
    2      2      3    2
    3      2      4    1
    4      4      5    2
    5      5      6    1
    6      6      7    2
    7      7      8    1
    8      8      9    2
    9      7     10    1
   10      9      4    1
   11      1     11    1
   12      1     12    1
   13      1     13    1
   14      5     14    1
   15      6     15    1
   16      8     16    1
   17      9     17    1
#
#	File Created by: Spartan'20 Export
#

@<TRIPOS>MOLECULE
M0101
19 19
SMALL
USER_CHARGES


@<TRIPOS>ATOM
    1   C1         3.094357046     0.000279158    -0.839888561     C.3   1  noname   -0.668204
    2   C2         2.250456756    -0.000241088     0.413687781     C.2   1  noname    0.679749
    3   O3         2.770466543    -0.000647037     1.530556695     O.2   1  noname   -0.526377
    4   C4         0.756875081    -0.000172597     0.281822115     C.2   1  noname   -0.041533
    5   C5         0.107181389    -0.000204976    -0.961691250     C.2   1  noname   -0.143012
    6   C6        -1.284432342    -0.000188072    -1.036084408     C.2   1  noname   -0.176060
    7   C7        -2.008760770    -0.000019162     0.153168780     C.2   1  noname    0.048802
    8   C8        -1.396528179     0.000059438     1.406369021     C.2   1  noname   -0.163032
    9   C9        -0.007027303    -0.000088980     1.459293308     C.2   1  noname   -0.115208
   10   N10       -3.477592194     0.000123375     0.082518190       N   1  noname    0.739987
   11   O11       -4.104743520     0.001064234     1.155217635       O   1  noname   -0.441153
   12   O12       -3.999860874    -0.000708065    -1.045093122     O.2   1  noname   -0.443866
   13   H13        4.144588789     0.000169605    -0.546975728       H   1  noname    0.203591
   14   H14        2.885869355     0.884896909    -1.449310372       H   1  noname    0.182662
   15   H15        2.885943619    -0.883892554    -1.449983364       H   1  noname    0.182652
   16   H16        0.679167751    -0.000249205    -1.885046140       H   1  noname    0.155519
   17   H17       -1.805941744    -0.000293736    -1.986765309       H   1  noname    0.183494
   18   H18       -2.003066273     0.000239357     2.305451867       H   1  noname    0.181145
   19   H19        0.513046870    -0.000126601     2.412752863       H   1  noname    0.160845


@<TRIPOS>BOND
    1      1      2    1
    2      2      3    2
    3      2      4    1
    4      4      5    2
    5      5      6    1
    6      6      7    2
    7      7      8    1
    8      8      9    2
    9      7     10    1
   10     10     11    1
   11     10     12    2
   12      9      4    1
   13      1     13    1
   14      1     14    1
   15      1     15    1
   16      5     16    1
   17      6     17    1
   18      8     18    1
   19      9     19    1
#
#	File Created by: Spartan'20 Export
#

@<TRIPOS>MOLECULE
M0102
25 25
SMALL
USER_CHARGES


@<TRIPOS>ATOM
    1   C1         4.184581530    -0.527774338     0.320725055     C.3   1  noname   -0.663915
    2   C2         3.232271020     0.644856480     0.440078989     C.2   1  noname    0.702231
    3   O3         3.656769282     1.765548297     0.732025509     O.2   1  noname   -0.565563
    4   C4         1.783036281     0.417004206     0.198292239     C.2   1  noname   -0.202548
    5   C5         0.903955037     1.503887263     0.297626242     C.2   1  noname   -0.005905
    6   C6        -0.457978017     1.351833425     0.084974817     C.2   1  noname   -0.429607
    7   C7        -1.009503207     0.090285861    -0.238577646     C.2   1  noname    0.546311
    8   C8        -0.119798296    -1.001911817    -0.330822932     C.2   1  noname   -0.445498
    9   C9         1.244479832    -0.837260744    -0.117362899     C.2   1  noname   -0.030645
   10   N10       -2.369477474    -0.060617477    -0.500834324   N.pl3   1  noname   -0.239152
   11   C11       -2.915878567    -1.408935261    -0.461612416     C.3   1  noname   -0.413131
   12   C12       -3.264738428     0.992803567    -0.046806451     C.3   1  noname   -0.426844
   13   H13        4.141543699    -0.965553333    -0.681363686       H   1  noname    0.174885
   14   H14        5.195653766    -0.169710498     0.518696961       H   1  noname    0.193075
   15   H15        3.928296928    -1.312927072     1.038996385       H   1  noname    0.175368
   16   H16        1.314538593     2.478388645     0.549832583       H   1  noname    0.141635
   17   H17       -1.094503043     2.223753939     0.183360052       H   1  noname    0.189096
   18   H18       -0.487168936    -1.994929861    -0.563994645       H   1  noname    0.188999
   19   H19        1.886868151    -1.711205557    -0.197252360       H   1  noname    0.135942
   20   H20       -2.767701275    -1.903308641     0.510363911       H   1  noname    0.153621
   21   H21       -3.985673866    -1.355837782    -0.668006892       H   1  noname    0.182715
   22   H22       -2.462270334    -2.027027377    -1.239909994       H   1  noname    0.145531
   23   H23       -3.027858159     1.934918262    -0.545342117       H   1  noname    0.151662
   24   H24       -3.224310131     1.150739607     1.040591735       H   1  noname    0.156280
   25   H25       -4.285134383     0.722980208    -0.323678113       H   1  noname    0.185456


@<TRIPOS>BOND
    1      1      2    1
    2      2      3    2
    3      2      4    1
    4      4      5    2
    5      5      6    1
    6      6      7    2
    7      7      8    1
    8      8      9    2
    9      7     10    1
   10     10     11    1
   11     10     12    1
   12      9      4    1
   13      1     13    1
   14      1     14    1
   15      1     15    1
   16      5     16    1
   17      6     17    1
   18      8     18    1
   19      9     19    1
   20     11     20    1
   21     11     21    1
   22     11     22    1
   23     12     23    1
   24     12     24    1
   25     12     25    1
#
#	File Created by: Spartan'20 Export
#

@<TRIPOS>MOLECULE
M0103
21 21
SMALL
USER_CHARGES


@<TRIPOS>ATOM
    1   C1         0.822342067     0.000072010    -3.607404454     C.3   1  noname   -0.663669
    2   C2        -0.368655271    -0.000078210    -2.672277450     C.2   1  noname    0.729808
    3   O3        -1.517159169    -0.000219351    -3.121144425     O.2   1  noname   -0.567741
    4   C4        -0.125618218    -0.000064514    -1.200577014     C.2   1  noname   -0.235524
    5   C5         1.162434218    -0.000085775    -0.639147352     C.2   1  noname    0.016550
    6   C6         1.331469777    -0.000051670     0.738974073     C.2   1  noname   -0.483461
    7   C7         0.214515865     0.000010114     1.586075073     C.2   1  noname    0.619686
    8   C8        -1.075913212     0.000015703     1.039673754     C.2   1  noname   -0.416265
    9   C9        -1.232426759    -0.000019956    -0.344640252     C.2   1  noname   -0.015634
   10   O10        0.498758785     0.000059146     2.923268184     O.3   1  noname   -0.373742
   11   C11       -0.610232247     0.000042716     3.820359837     C.3   1  noname   -0.296968
   12   H12        1.446112237     0.884081943    -3.444292129       H   1  noname    0.175062
   13   H13        1.446109419    -0.883968872    -3.444570416       H   1  noname    0.175072
   14   H14        0.452179191     0.000259252    -4.633014216       H   1  noname    0.193120
   15   H15        2.044630005    -0.000140243    -1.273589639       H   1  noname    0.133526
   16   H16        2.320483097    -0.000066902     1.188782734       H   1  noname    0.206033
   17   H17       -1.956555094     0.000053897     1.672774934       H   1  noname    0.183042
   18   H18       -2.225559709    -0.000015547    -0.785612403       H   1  noname    0.152009
   19   H19       -1.227019139     0.895052355     3.689332388       H   1  noname    0.144126
   20   H20       -1.226992925    -0.894985808     3.689344317       H   1  noname    0.144123
   21   H21       -0.172902920     0.000049711     4.817684456       H   1  noname    0.180846


@<TRIPOS>BOND
    1      1      2    1
    2      2      3    2
    3      2      4    1
    4      4      5    2
    5      5      6    1
    6      6      7    2
    7      7      8    1
    8      8      9    2
    9      7     10    1
   10     10     11    1
   11      9      4    1
   12      1     12    1
   13      1     13    1
   14      1     14    1
   15      5     15    1
   16      6     16    1
   17      8     17    1
   18      9     18    1
   19     11     19    1
   20     11     20    1
   21     11     21    1
#
#	File Created by: Spartan'20 Export
#

@<TRIPOS>MOLECULE
M0104
21 21
SMALL
USER_CHARGES


@<TRIPOS>ATOM
    1   C1         3.744339485     0.428550406    -0.252056087     C.3   1  noname   -0.703497
    2   C2         2.577698106    -0.292948325    -0.890500039     C.2   1  noname    0.695953
    3   O3         2.755114181    -1.047619122    -1.848768020     O.2   1  noname   -0.551499
    4   C4         1.207564041    -0.075703225    -0.337595070     C.2   1  noname   -0.084025
    5   C5         0.135521883    -0.753362778    -0.931133305     C.2   1  noname   -0.164524
    6   C6        -1.163333155    -0.594755154    -0.456931609     C.2   1  noname   -0.176601
    7   C7        -1.419895920     0.255135924     0.629828952     C.2   1  noname    0.238832
    8   C8        -0.345867213     0.937853918     1.224362724     C.2   1  noname   -0.315303
    9   C9         0.950139394     0.774685183     0.749165670     C.2   1  noname   -0.098988
   10   S10       -3.017641460     0.538460937     1.331119119     S.3   1  noname   -0.148596
   11   C11       -4.097414233    -0.446177213     0.270237315     C.3   1  noname   -0.465520
   12   H12        4.652729573     0.149693762    -0.786662897       H   1  noname    0.205294
   13   H13        3.608559656     1.514200091    -0.303638432       H   1  noname    0.185558
   14   H14        3.842314277     0.153559677     0.802984133       H   1  noname    0.186655
   15   H15        0.340573933    -1.410404645    -1.772119761       H   1  noname    0.165710
   16   H16       -1.967252727    -1.138880859    -0.941799872       H   1  noname    0.154764
   17   H17       -0.530840495     1.601841570     2.066835401       H   1  noname    0.191731
   18   H18        1.757317056     1.318195963     1.233997625       H   1  noname    0.145024
   19   H19       -5.109402162    -0.295739972     0.654092075       H   1  noname    0.216191
   20   H20       -4.060405724    -0.106613451    -0.766117915       H   1  noname    0.161965
   21   H21       -3.859818498    -1.509972686     0.324699993       H   1  noname    0.160876


@<TRIPOS>BOND
    1      1      2    1
    2      2      3    2
    3      2      4    1
    4      4      5    2
    5      5      6    1
    6      6      7    2
    7      7      8    1
    8      8      9    2
    9      7     10    1
   10     10     11    1
   11      9      4    1
   12      1     12    1
   13      1     13    1
   14      1     14    1
   15      5     15    1
   16      6     16    1
   17      8     17    1
   18      9     18    1
   19     11     19    1
   20     11     20    1
   21     11     21    1
#
#	File Created by: Spartan'20 Export
#

@<TRIPOS>MOLECULE
M0105
22 22
SMALL
USER_CHARGES


@<TRIPOS>ATOM
    1   C1        -1.900289088     0.000142105     2.872944684     C.3   1  noname   -0.687534
    2   C2        -0.391729502    -0.000073975     2.777578740     C.2   1  noname    0.697324
    3   O3         0.309406286    -0.000270973     3.790139446     O.2   1  noname   -0.547750
    4   C4         0.245486729    -0.000049871     1.419590626     C.2   1  noname   -0.103600
    5   C5         1.646857576     0.000009518     1.346571131     C.2   1  noname   -0.065705
    6   C6         2.279039123     0.000033198     0.106853102     C.2   1  noname   -0.183894
    7   C7         1.526868869    -0.000008007    -1.070797885     C.2   1  noname   -0.090478
    8   C8         0.127719145    -0.000085640    -1.005713552     C.2   1  noname   -0.126154
    9   C9        -0.506837186    -0.000105730     0.243307004     C.2   1  noname   -0.110559
   10   C10       -0.738546363    -0.000174474    -2.229301005     C.2   1  noname    0.707618
   11   O11       -1.965504508    -0.000481350    -2.120280948     O.2   1  noname   -0.551805
   12   C12       -0.080403715     0.000085572    -3.590957813     C.3   1  noname   -0.673336
   13   H13       -2.321019691    -0.882951995     2.383534105       H   1  noname    0.190084
   14   H14       -2.320793146     0.883324085     2.383477905       H   1  noname    0.190071
   15   H15       -2.177395346     0.000212659     3.927271531       H   1  noname    0.200648
   16   H16        2.216646223     0.000029541     2.271572970       H   1  noname    0.149967
   17   H17        3.364969053     0.000080602     0.053008462       H   1  noname    0.146996
   18   H18        2.038210756     0.000005861    -2.029565067       H   1  noname    0.143264
   19   H19       -1.592724842    -0.000177624     0.256269331       H   1  noname    0.152539
   20   H20        0.551373477    -0.883963096    -3.717762318       H   1  noname    0.181579
   21   H21        0.551316452     0.884234679    -3.717483674       H   1  noname    0.181557
   22   H22       -0.862650303     0.000184915    -4.350256775       H   1  noname    0.199167


@<TRIPOS>BOND
    1      1      2    1
    2      2      3    2
    3      2      4    1
    4      4      5    2
    5      5      6    1
    6      6      7    2
    7      7      8    1
    8      8      9    2
    9      8     10    1
   10     10     11    2
   11     10     12    1
   12      9      4    1
   13      1     13    1
   14      1     14    1
   15      1     15    1
   16      5     16    1
   17      6     17    1
   18      7     18    1
   19      9     19    1
   20     12     20    1
   21     12     21    1
   22     12     22    1
#
#	File Created by: Spartan'20 Export
#

@<TRIPOS>MOLECULE
M0106
20 20
SMALL
USER_CHARGES


@<TRIPOS>ATOM
    1   C1         3.290603329    -0.412231515     0.178758798     C.3   1  noname   -0.668983
    2   C2         1.925752339    -1.062849256     0.190673533     C.2   1  noname    0.678171
    3   O3         1.804193002    -2.281665230     0.318818526     O.2   1  noname   -0.532987
    4   C4         0.709763288    -0.196374595     0.042556722     C.2   1  noname   -0.063833
    5   C5         0.787012198     1.195687940    -0.105048898     C.2   1  noname   -0.120708
    6   C6        -0.378909144     1.950295616    -0.242135388     C.2   1  noname   -0.160743
    7   C7        -1.627128582     1.329187580    -0.233417022     C.2   1  noname   -0.132421
    8   C8        -1.697431252    -0.059961091    -0.089350322     C.2   1  noname    0.033749
    9   C9        -0.541758145    -0.823462633     0.048962761     C.2   1  noname   -0.168809
   10   C10       -3.033436587    -0.735260801    -0.015863866     C.3   1  noname    0.531091
   11   F11       -3.443739857    -0.880868321     1.266588230       F   1  noname   -0.203474
   12   F12       -3.991782178    -0.028688047    -0.661082257       F   1  noname   -0.203531
   13   F13       -3.001579227    -1.970277933    -0.564885398       F   1  noname   -0.195954
   14   H14        4.042849206    -1.191959164     0.300197278       H   1  noname    0.201703
   15   H15        3.383068640     0.313486685     0.992379827       H   1  noname    0.182381
   16   H16        3.460987746     0.116639923    -0.763704411       H   1  noname    0.181603
   17   H17        1.749571213     1.698937297    -0.116269456       H   1  noname    0.146938
   18   H18       -0.315209842     3.028795923    -0.359335258       H   1  noname    0.150611
   19   H19       -2.535420036     1.913594654    -0.345004522       H   1  noname    0.165679
   20   H20       -0.587406109    -1.903027034     0.157161123       H   1  noname    0.179520


@<TRIPOS>BOND
    1      1      2    1
    2      2      3    2
    3      2      4    1
    4      4      5    2
    5      5      6    1
    6      6      7    2
    7      7      8    1
    8      8      9    2
    9      8     10    1
   10     10     11    1
   11     10     12    1
   12     10     13    1
   13      9      4    1
   14      1     14    1
   15      1     15    1
   16      1     16    1
   17      5     17    1
   18      6     18    1
   19      7     19    1
   20      9     20    1
#
#	File Created by: Spartan'20 Export
#

@<TRIPOS>MOLECULE
M0107
17 17
SMALL
USER_CHARGES


@<TRIPOS>ATOM
    1   C1        -0.566109988     0.000080598    -2.696472187     C.3   1  noname   -0.678565
    2   C2        -1.226185812    -0.000092343    -1.335694002     C.2   1  noname    0.701683
    3   O3        -2.452705483    -0.000289377    -1.226580181     O.2   1  noname   -0.541644
    4   C4        -0.358547184    -0.000041519    -0.112636371     C.2   1  noname   -0.070275
    5   C5         1.041140246    -0.000070409    -0.179626320     C.2   1  noname   -0.165708
    6   C6         1.791287405    -0.000042036     0.996942684     C.2   1  noname   -0.137703
    7   C7         1.162755634     0.000027657     2.241866652     C.2   1  noname   -0.160482
    8   C8        -0.233398526     0.000053115     2.293121622     C.2   1  noname    0.161045
    9   C9        -0.999324761     0.000013656     1.133222274     C.2   1  noname   -0.174833
   10   Cl10      -1.026692210     0.000134301     3.841423004      Cl   1  noname   -0.134347
   11   H11       -1.347964875     0.000149997    -3.455831887       H   1  noname    0.199274
   12   H12        0.064787683     0.884433841    -2.822622017       H   1  noname    0.183043
   13   H13        0.064786942    -0.884237741    -2.822807170       H   1  noname    0.183049
   14   H14        1.552224698    -0.000124923    -1.137569385       H   1  noname    0.153728
   15   H15        2.877103342    -0.000071629     0.947870406       H   1  noname    0.149261
   16   H16        1.741084944     0.000058399     3.161172714       H   1  noname    0.161023
   17   H17       -2.084242055     0.000018412     1.174220164       H   1  noname    0.171452


@<TRIPOS>BOND
    1      1      2    1
    2      2      3    2
    3      2      4    1
    4      4      5    2
    5      5      6    1
    6      6      7    2
    7      7      8    1
    8      8      9    2
    9      8     10    1
   10      9      4    1
   11      1     11    1
   12      1     12    1
   13      1     13    1
   14      5     14    1
   15      6     15    1
   16      7     16    1
   17      9     17    1
#
#	File Created by: Spartan'20 Export
#

@<TRIPOS>MOLECULE
M0108
17 17
SMALL
USER_CHARGES


@<TRIPOS>ATOM
    1   C1         0.018854496     0.000091851    -2.738220937     C.3   1  noname   -0.692817
    2   C2        -0.920589771    -0.000088507    -1.552943406     C.2   1  noname    0.705340
    3   O3        -2.141665147    -0.000240718    -1.714167798     O.2   1  noname   -0.540897
    4   C4        -0.341471850    -0.000053844    -0.171231206     C.2   1  noname   -0.004060
    5   C5         1.039958595    -0.000090806     0.069581199     C.2   1  noname   -0.237341
    6   C6         1.519292515    -0.000067053     1.380964534     C.2   1  noname   -0.070922
    7   C7         0.634970923     0.000020899     2.460118219     C.2   1  noname   -0.313358
    8   C8        -0.731335290     0.000060165     2.193636898     C.2   1  noname    0.461215
    9   C9        -1.239144662     0.000015290     0.905252326     C.2   1  noname   -0.340888
   10   F10       -1.594128654     0.000151034     3.239641692       F   1  noname   -0.254394
   11   H11       -0.579385070     0.000026589    -3.649514787       H   1  noname    0.203703
   12   H12        0.662769803     0.884269733    -2.724194127       H   1  noname    0.186545
   13   H13        0.662991752    -0.883931888    -2.724267610       H   1  noname    0.186536
   14   H14        1.746244984    -0.000148573    -0.754937387       H   1  noname    0.161196
   15   H15        2.590016064    -0.000106324     1.567063480       H   1  noname    0.145283
   16   H16        0.981881066     0.000060586     3.488887764       H   1  noname    0.196150
   17   H17       -2.309259754     0.000031563     0.724331146       H   1  noname    0.208709


@<TRIPOS>BOND
    1      1      2    1
    2      2      3    2
    3      2      4    1
    4      4      5    2
    5      5      6    1
    6      6      7    2
    7      7      8    1
    8      8      9    2
    9      8     10    1
   10      9      4    1
   11      1     11    1
   12      1     12    1
   13      1     13    1
   14      5     14    1
   15      6     15    1
   16      7     16    1
   17      9     17    1
#
#	File Created by: Spartan'20 Export
#

@<TRIPOS>MOLECULE
M0109
21 21
SMALL
USER_CHARGES


@<TRIPOS>ATOM
    1   C1        -0.153087964     0.000245692     3.387703614     C.3   1  noname   -0.700412
    2   C2        -0.790844447    -0.000300011     2.015129886     C.2   1  noname    0.729543
    3   O3        -2.018125928    -0.000803402     1.893952040     O.2   1  noname   -0.557277
    4   C4         0.091874049    -0.000186114     0.807690502     C.2   1  noname   -0.018579
    5   C5         1.488108294    -0.000139820     0.897321685     C.2   1  noname   -0.270084
    6   C6         2.249449912    -0.000098800    -0.275217795     C.2   1  noname   -0.025503
    7   C7         1.633050358    -0.000036609    -1.521066577     C.2   1  noname   -0.386732
    8   C8         0.231455749    -0.000048301    -1.607453968     C.2   1  noname    0.557889
    9   C9        -0.540294501    -0.000158234    -0.446210464     C.2   1  noname   -0.383719
   10   O10       -0.270432902     0.000045032    -2.880015622     O.3   1  noname   -0.381097
   11   C11       -1.691512580     0.000181792    -3.007619690     C.3   1  noname   -0.291937
   12   H12        0.476668899    -0.883414558     3.524284971       H   1  noname    0.187674
   13   H13        0.476241927     0.884311959     3.523795968       H   1  noname    0.187666
   14   H14       -0.947202409     0.000229618     4.134478919       H   1  noname    0.200240
   15   H15        1.986959300    -0.000175519     1.861564514       H   1  noname    0.162160
   16   H16        3.335077546    -0.000100653    -0.217225001       H   1  noname    0.133745
   17   H17        2.210209271     0.000033955    -2.441576805       H   1  noname    0.196927
   18   H18       -1.624260596    -0.000239078    -0.461205606       H   1  noname    0.190738
   19   H19       -2.130740570    -0.893932051    -2.554518647       H   1  noname    0.146591
   20   H20       -1.882023813     0.000271878    -4.079414635       H   1  noname    0.175584
   21   H21       -2.130569594     0.894313224    -2.554397287       H   1  noname    0.146583


@<TRIPOS>BOND
    1      1      2    1
    2      2      3    2
    3      2      4    1
    4      4      5    2
    5      5      6    1
    6      6      7    2
    7      7      8    1
    8      8      9    2
    9      8     10    1
   10     10     11    1
   11      9      4    1
   12      1     12    1
   13      1     13    1
   14      1     14    1
   15      5     15    1
   16      6     16    1
   17      7     17    1
   18      9     18    1
   19     11     19    1
   20     11     20    1
   21     11     21    1
#
#	File Created by: Spartan'20 Export
#

@<TRIPOS>MOLECULE
M0110
17 17
SMALL
USER_CHARGES


@<TRIPOS>ATOM
    1   C1         0.818408738     0.000124599     2.599880984     C.3   1  noname   -0.679762
    2   C2        -0.432228553    -0.000157051     1.747015843     C.2   1  noname    0.677694
    3   O3        -1.548371497    -0.000449893     2.269351871     O.2   1  noname   -0.544329
    4   C4        -0.291564026    -0.000080265     0.256693020     C.2   1  noname   -0.075501
    5   C5         0.956636184    -0.000131154    -0.381567319     C.2   1  noname   -0.132957
    6   C6         1.028958258    -0.000078783    -1.775321689     C.2   1  noname   -0.163611
    7   C7        -0.139115467     0.000054318    -2.540044527     C.2   1  noname   -0.087489
    8   C8        -1.384959467     0.000109231    -1.905484724     C.2   1  noname   -0.141646
    9   C9        -1.462303614     0.000028894    -0.515371552     C.2   1  noname   -0.112547
   10   H10        0.517723551     0.000211576     3.647554406       H   1  noname    0.201086
   11   H11        1.429091974    -0.883899822     2.395899516       H   1  noname    0.182382
   12   H12        1.428878636     0.884268299     2.395680788       H   1  noname    0.182313
   13   H13        1.875364286    -0.000231687     0.198077263       H   1  noname    0.139987
   14   H14        1.999391042    -0.000138144    -2.265354483       H   1  noname    0.139287
   15   H15       -0.079416143     0.000114544    -3.625525244       H   1  noname    0.133251
   16   H16       -2.296341389     0.000210548    -2.498141292       H   1  noname    0.134794
   17   H17       -2.420152514     0.000044788    -0.003342862       H   1  noname    0.147046


@<TRIPOS>BOND
    1      1      2    1
    2      2      3    2
    3      2      4    1
    4      4      5    2
    5      5      6    1
    6      6      7    2
    7      7      8    1
    8      8      9    2
    9      9      4    1
   10      1     10    1
   11      1     11    1
   12      1     12    1
   13      5     13    1
   14      6     14    1
   15      7     15    1
   16      8     16    1
   17      9     17    1
#
#	File Created by: Spartan'20 Export
#

@<TRIPOS>MOLECULE
M0111
16 16
SMALL
USER_CHARGES


@<TRIPOS>ATOM
    1   C1         0.754939729     0.000025986    -2.409453960     C.3   1  noname   -0.654843
    2   C2        -0.474660636     0.000058996    -1.531550046     C.2   1  noname    0.600408
    3   O3        -1.606459021     0.000206933    -2.016636443     O.2   1  noname   -0.510375
    4   C4        -0.297476009     0.000005765    -0.042123818     C.2   1  noname    0.293714
    5   C5         0.954393413    -0.000019766     0.583296094     C.2   1  noname   -0.530144
    6   C6         1.007439846    -0.000069174     1.978110730     C.2   1  noname    0.434372
    7   N7        -0.078782464    -0.000069312     2.770671553     N.2   1  noname   -0.636886
    8   C8        -1.276958573    -0.000020482     2.153472895     C.2   1  noname    0.444903
    9   C9        -1.437229370     0.000006939     0.770471206     C.2   1  noname   -0.512096
   10   H10        0.435151732    -0.000445572    -3.451849922       H   1  noname    0.199862
   11   H11        1.370361395    -0.883868697    -2.215096218       H   1  noname    0.183583
   12   H12        1.369981057     0.884252238    -2.215650676       H   1  noname    0.183634
   13   H13        1.878418889     0.000006273     0.012394486       H   1  noname    0.192769
   14   H14        1.967197677    -0.000104080     2.491894694       H   1  noname    0.053833
   15   H15       -2.144899131    -0.000001279     2.810262995       H   1  noname    0.053730
   16   H16       -2.421418534     0.000035232     0.311786429       H   1  noname    0.203537


@<TRIPOS>BOND
    1      1      2    1
    2      2      3    2
    3      2      4    1
    4      4      5    2
    5      5      6    1
    6      6      7    2
    7      7      8    1
    8      8      9    2
    9      9      4    1
   10      1     10    1
   11      1     11    1
   12      1     12    1
   13      5     13    1
   14      6     14    1
   15      8     15    1
   16      9     16    1
#
#	File Created by: Spartan'20 Export
#

@<TRIPOS>MOLECULE
M0112
14 14
SMALL
USER_CHARGES


@<TRIPOS>ATOM
    1   C1         0.631049244     0.000018743    -2.019693291     C.3   1  noname   -0.617582
    2   C2        -0.610538345    -0.000049103    -1.167660856     C.2   1  noname    0.660408
    3   O3        -1.748278779    -0.000100333    -1.608793051     O.2   1  noname   -0.547404
    4   N4        -0.393670467    -0.000042092     0.235832801    N.am   1  noname    0.061047
    5   C5         0.803595623    -0.000012026     0.940905362     C.2   1  noname   -0.485951
    6   C6         0.444553875    -0.000009591     2.263342172     C.2   1  noname    0.200233
    7   N7        -0.934236663     0.000019316     2.407622675     N.2   1  noname   -0.525287
    8   C8        -1.406455234     0.000037324     1.179914903     C.2   1  noname    0.172522
    9   H9         1.238227112     0.886179769    -1.818239016       H   1  noname    0.189599
   10   H10        0.320185830     0.000028749    -3.063515335       H   1  noname    0.200172
   11   H11        1.238288695    -0.886105233    -1.818281258       H   1  noname    0.189597
   12   H12        1.767230365    -0.000041536     0.455837250       H   1  noname    0.238830
   13   H13        1.096222612    -0.000013754     3.126525855       H   1  noname    0.118844
   14   H14       -2.446173870     0.000089769     0.886201788       H   1  noname    0.144972


@<TRIPOS>BOND
    1      1      2    1
    2      2      3    2
    3      2      4    am
    4      4      5    1
    5      5      6    2
    6      6      7    1
    7      7      8    2
    8      8      4    1
    9      1      9    1
   10      1     10    1
   11      1     11    1
   12      5     12    1
   13      6     13    1
   14      8     14    1
#
#	File Created by: Spartan'20 Export
#

@<TRIPOS>MOLECULE
M0113
15 14
SMALL
USER_CHARGES


@<TRIPOS>ATOM
    1   C1         1.883979828    -0.571790703     0.316044014     C.3   1  noname   -0.534825
    2   C2         0.732907471     0.329012960     0.707422110     C.2   1  noname    0.148943
    3   S3         0.857986477     1.354114645     2.006641264     S.2   1  noname   -0.362987
    4   N4        -0.384816024     0.254257219    -0.056684173   N.pl3   1  noname    0.306411
    5   C5        -0.592458865    -0.753773561    -1.091155660     C.3   1  noname   -0.522518
    6   C6        -1.551388744     1.048183172     0.315402727     C.3   1  noname   -0.658357
    7   H7         2.234492249    -0.355931845    -0.699603132       H   1  noname    0.182692
    8   H8         2.705603876    -0.401360948     1.009210940       H   1  noname    0.151447
    9   H9         1.600346484    -1.629003632     0.361885176       H   1  noname    0.192526
   10   H10       -1.171855878    -0.312741023    -1.905302449       H   1  noname    0.168361
   11   H11       -1.142226400    -1.617971746    -0.697868662       H   1  noname    0.173929
   12   H12        0.356763602    -1.094747260    -1.497111195       H   1  noname    0.168237
   13   H13       -1.277515407     2.103140868     0.374756730       H   1  noname    0.173881
   14   H14       -1.928083135     0.745256489     1.297484868       H   1  noname    0.187146
   15   H15       -2.323735534     0.903355364    -0.441122558       H   1  noname    0.225113


@<TRIPOS>BOND
    1      1      2    1
    2      2      3    2
    3      2      4    1
    4      4      5    1
    5      4      6    1
    6      1      7    1
    7      1      8    1
    8      1      9    1
    9      5     10    1
   10      5     11    1
   11      5     12    1
   12      6     13    1
   13      6     14    1
   14      6     15    1
#
#	File Created by: Spartan'20 Export
#

@<TRIPOS>MOLECULE
M0114
12 11
SMALL
USER_CHARGES


@<TRIPOS>ATOM
    1   C1         1.489536417    -0.000009744    -1.173211878     C.3   1  noname   -0.769541
    2   C2         0.054609791    -0.000000147    -0.699332632     C.2   1  noname    0.422422
    3   S3        -1.223351566    -0.000001746    -1.747657131     S.2   1  noname   -0.423448
    4   N4        -0.091142144     0.000046085     0.640402034   N.pl3   1  noname   -0.181870
    5   C5        -1.383477247     0.000026450     1.300150814     C.3   1  noname   -0.632071
    6   H6         2.208004727    -0.000273156    -0.346537508       H   1  noname    0.200017
    7   H7         1.667406093     0.880686455    -1.793231211       H   1  noname    0.229621
    8   H8         1.667260858    -0.880435079    -1.793674520       H   1  noname    0.229620
    9   H9         0.741485560    -0.000073664     1.216378368       H   1  noname    0.297760
   10   H10       -1.956650173     0.883925644     1.009119220       H   1  noname    0.203942
   11   H11       -1.956335322    -0.884170943     1.009491636       H   1  noname    0.203933
   12   H12       -1.217346995     0.000279846     2.378102808       H   1  noname    0.219617


@<TRIPOS>BOND
    1      1      2    1
    2      2      3    2
    3      2      4    1
    4      4      5    1
    5      1      6    1
    6      1      7    1
    7      1      8    1
    8      4      9    1
    9      5     10    1
   10      5     11    1
   11      5     12    1
#
#	File Created by: Spartan'20 Export
#

@<TRIPOS>MOLECULE
M0115
27 27
SMALL
USER_CHARGES


@<TRIPOS>ATOM
    1   C1         0.685716738     1.260616772    -2.479864635     C.3   1  noname   -0.776342
    2   C2        -0.111687736     0.000112894    -2.138154309     C.3   1  noname    1.297604
    3   C3        -1.430336955    -0.000336397    -2.907848705     C.3   1  noname   -0.932949
    4   C4         0.686574590    -1.259790789    -2.480083831     C.3   1  noname   -0.776435
    5   N5        -0.479799553     0.000351120    -0.704902679     N.2   1  noname   -0.678475
    6   C6         0.461737595    -0.000907860     0.170692323     C.2   1  noname    0.125064
    7   C7         0.171313564    -0.000484609     1.612476149     C.2   1  noname    0.182779
    8   C8        -1.150671897     0.000190819     2.084952734     C.2   1  noname   -0.163913
    9   C9        -1.398955567     0.000669637     3.454426111     C.2   1  noname   -0.127079
   10   C10       -0.336867773     0.000503224     4.366562870     C.2   1  noname   -0.155556
   11   C11        0.979242024    -0.000181258     3.900991575     C.2   1  noname   -0.079724
   12   C12        1.231961123    -0.000716583     2.528588116     C.2   1  noname   -0.288529
   13   H13        0.125361454     2.151862043    -2.182155539       H   1  noname    0.179701
   14   H14        1.652250050     1.274331488    -1.967360020       H   1  noname    0.154391
   15   H15        0.872359833     1.311009984    -3.557306484       H   1  noname    0.158148
   16   H16       -2.016944479    -0.885655804    -2.647366747       H   1  noname    0.205011
   17   H17       -2.017542311     0.884573158    -2.647341343       H   1  noname    0.204964
   18   H18       -1.252869345    -0.000285466    -3.988489192       H   1  noname    0.193109
   19   H19        0.873058083    -1.309877536    -3.557566025       H   1  noname    0.158159
   20   H20        1.653255865    -1.273016550    -1.967864069       H   1  noname    0.154454
   21   H21        0.126859827    -2.151470751    -2.182458347       H   1  noname    0.179644
   22   H22        1.532035453    -0.002269236    -0.092173584       H   1  noname    0.082448
   23   H23       -1.960755020     0.000338967     1.360632693       H   1  noname    0.145078
   24   H24       -2.424197710     0.001142371     3.817147045       H   1  noname    0.136206
   25   H25       -0.536453931     0.000887728     5.435496427       H   1  noname    0.139427
   26   H26        1.807254210    -0.000318918     4.605741169       H   1  noname    0.128702
   27   H27        2.258101866    -0.001278448     2.163228296       H   1  noname    0.154113


@<TRIPOS>BOND
    1      1      2    1
    2      2      3    1
    3      2      4    1
    4      2      5    1
    5      5      6    2
    6      6      7    1
    7      7      8    2
    8      8      9    1
    9      9     10    2
   10     10     11    1
   11     11     12    2
   12     12      7    1
   13      1     13    1
   14      1     14    1
   15      1     15    1
   16      3     16    1
   17      3     17    1
   18      3     18    1
   19      4     19    1
   20      4     20    1
   21      4     21    1
   22      6     22    1
   23      8     23    1
   24      9     24    1
   25     10     25    1
   26     11     26    1
   27     12     27    1
#
#	File Created by: Spartan'20 Export
#

@<TRIPOS>MOLECULE
M0116
14 13
SMALL
USER_CHARGES


@<TRIPOS>ATOM
    1   C1        -1.452771499     0.000000588    -0.127220508     C.3   1  noname   -0.748904
    2   C2         0.000004719     0.000000288     0.324929832     C.3   1  noname    0.727287
    3   C3         0.726387821    -1.258160084    -0.127111153     C.3   1  noname   -0.732509
    4   C4         0.726389496     1.258159220    -0.127112239     C.3   1  noname   -0.732510
    5   Br5       -0.000098222    -0.000002594     2.319112294      Br   1  noname   -0.256361
    6   H6        -1.977689677     0.887320587     0.234377817       H   1  noname    0.193323
    7   H7        -1.482706669     0.000010949    -1.223227075       H   1  noname    0.202591
    8   H8        -1.977686269    -0.887327741     0.234362667       H   1  noname    0.193323
    9   H9         1.757351929    -1.268926392     0.234332892       H   1  noname    0.188296
   10   H10        0.220549190    -2.156404277     0.234723751       H   1  noname    0.189253
   11   H11        0.741181251    -1.284219965    -1.223108784       H   1  noname    0.199332
   12   H12        0.220546621     2.156405768     0.234711777       H   1  noname    0.189253
   13   H13        0.741189707     1.284211396    -1.223109754       H   1  noname    0.199332
   14   H14        1.757351604     1.268932258     0.234338483       H   1  noname    0.188296


@<TRIPOS>BOND
    1      1      2    1
    2      2      3    1
    3      2      4    1
    4      2      5    1
    5      1      6    1
    6      1      7    1
    7      1      8    1
    8      3      9    1
    9      3     10    1
   10      3     11    1
   11      4     12    1
   12      4     13    1
   13      4     14    1
#
#	File Created by: Spartan'20 Export
#

@<TRIPOS>MOLECULE
M0117
15 14
SMALL
USER_CHARGES


@<TRIPOS>ATOM
    1   C1        -1.453176395     0.000002590    -0.296249154     C.3   1  noname   -0.752097
    2   C2         0.000099062     0.000027701     0.195942142     C.3   1  noname    0.909188
    3   C3         0.726663920     1.258572650    -0.296426346     C.3   1  noname   -0.756608
    4   C4         0.726649069    -1.258538774    -0.296396010     C.3   1  noname   -0.756585
    5   C5        -0.000089781     0.000003387     1.669294083     C.1   1  noname    0.082652
    6   N6        -0.000299829    -0.000125113     2.851661722     N.1   1  noname   -0.399259
    7   H7        -1.985185614     0.887326957     0.057748487       H   1  noname    0.186037
    8   H8        -1.464953264    -0.000036996    -1.390941771       H   1  noname    0.183623
    9   H9        -1.985144429    -0.887318310     0.057814362       H   1  noname    0.186039
   10   H10        0.732591656     1.268240312    -1.391091100       H   1  noname    0.185263
   11   H11        0.224059568     2.163018609     0.057193394       H   1  noname    0.186559
   12   H12        1.761104212     1.275999300     0.057615346       H   1  noname    0.186689
   13   H13        0.732569121    -1.268232869    -1.391061334       H   1  noname    0.185254
   14   H14        0.224022405    -2.162958610     0.057254428       H   1  noname    0.186558
   15   H15        1.761090299    -1.275980833     0.057641751       H   1  noname    0.186686


@<TRIPOS>BOND
    1      1      2    1
    2      2      3    1
    3      2      4    1
    4      2      5    1
    5      5      6    3
    6      1      7    1
    7      1      8    1
    8      1      9    1
    9      3     10    1
   10      3     11    1
   11      3     12    1
   12      4     13    1
   13      4     14    1
   14      4     15    1
#
#	File Created by: Spartan'20 Export
#

@<TRIPOS>MOLECULE
M0118
24 23
SMALL
USER_CHARGES


@<TRIPOS>ATOM
    1   C1        -1.129805910     0.426273075     1.496841850     C.3   1  noname   -0.828858
    2   C2        -1.067659988     0.080347847     0.000147555     C.3   1  noname    1.019464
    3   C3        -1.277511981    -1.420761893    -0.257328030     C.3   1  noname   -0.848834
    4   C4        -2.226249065     0.820210537    -0.681429281     C.3   1  noname   -0.790376
    5   C5         0.236057032     0.592763957    -0.650157409     C.2   1  noname    0.245125
    6   O6         0.169710051     1.446748895    -1.545689516     O.2   1  noname   -0.555213
    7   N7         1.466077735     0.113653179    -0.250045977    N.am   1  noname    0.163195
    8   C8         2.652578637     0.648814072    -0.904703313     C.3   1  noname   -0.565044
    9   C9         1.782263082    -0.863951941     0.774952636     C.3   1  noname   -0.682551
   10   H10       -0.975688019     1.501214520     1.639619743       H   1  noname    0.186214
   11   H11       -0.398640708    -0.101408453     2.111885211       H   1  noname    0.182060
   12   H12       -2.124837811     0.175902943     1.881000384       H   1  noname    0.189260
   13   H13       -1.241311842    -1.623891381    -1.332814574       H   1  noname    0.190732
   14   H14       -2.269049228    -1.711921105     0.105628108       H   1  noname    0.193940
   15   H15       -0.547284447    -2.068000891     0.230389866       H   1  noname    0.186881
   16   H16       -2.139153478     1.899255774    -0.542301515       H   1  noname    0.184968
   17   H17       -3.172635239     0.480799514    -0.246741521       H   1  noname    0.167450
   18   H18       -2.238956532     0.625222532    -1.755193303       H   1  noname    0.186046
   19   H19        2.338394753     1.365167055    -1.659195955       H   1  noname    0.219576
   20   H20        3.297882708     1.142511104    -0.168421089       H   1  noname    0.173264
   21   H21        3.219330856    -0.164398601    -1.373951746       H   1  noname    0.172059
   22   H22        0.894263068    -1.264799072     1.243353842       H   1  noname    0.205297
   23   H23        2.407435517    -0.404854712     1.550760862       H   1  noname    0.202854
   24   H24        2.344790807    -1.694896954     0.333393172       H   1  noname    0.202489


@<TRIPOS>BOND
    1      1      2    1
    2      2      3    1
    3      2      4    1
    4      2      5    1
    5      5      6    2
    6      5      7    am
    7      7      8    1
    8      7      9    1
    9      1     10    1
   10      1     11    1
   11      1     12    1
   12      3     13    1
   13      3     14    1
   14      3     15    1
   15      4     16    1
   16      4     17    1
   17      4     18    1
   18      8     19    1
   19      8     20    1
   20      8     21    1
   21      9     22    1
   22      9     23    1
   23      9     24    1
#
#	File Created by: Spartan'20 Export
#

@<TRIPOS>MOLECULE
M0119
50 51
SMALL
USER_CHARGES


@<TRIPOS>ATOM
    1   C1        -0.493495950    -1.556431762     3.286566477     C.3   1  noname   -0.754189
    2   C2         0.269729239    -0.242587856     3.042336961     C.3   1  noname    1.018448
    3   C3        -0.619111329     0.988259534     3.280061516     C.3   1  noname   -0.801164
    4   C4         1.394567204    -0.181641638     4.089307787     C.3   1  noname   -0.781456
    5   C5         0.973255841    -0.253466232     1.656488782     C.2   1  noname    0.475631
    6   O6         2.182220721    -0.534575381     1.630657466     O.2   1  noname   -0.608142
    7   N7         0.325018072     0.099037505     0.475665047    N.am   1  noname   -0.966314
    8   C8        -1.141289923    -0.046231165     0.352134547     C.3   1  noname    0.659895
    9   C9        -1.948402605     1.255503855     0.077286051     C.3   1  noname   -0.371326
   10   C10       -2.592458010     1.456992723    -1.304921418     C.3   1  noname   -0.130104
   11   C11       -3.142228976     0.160868652    -1.897589905     C.3   1  noname   -0.266748
   12   C12       -2.062817593    -0.919028834    -1.930902095     C.3   1  noname   -0.147616
   13   C13       -1.607726596    -1.243777088    -0.509445063     C.3   1  noname   -0.314455
   14   C14        1.255025344     0.187779202    -0.670840665     C.3   1  noname    0.918948
   15   C15        0.846200768     1.223789611    -1.718111989     C.3   1  noname   -0.430117
   16   C16        1.618946554     1.004903008    -3.033099789     C.3   1  noname   -0.231687
   17   C17        3.007857646     0.427106715    -2.767772101     C.3   1  noname   -0.066145
   18   C18        2.897945010    -0.978891452    -2.141833831     C.3   1  noname   -0.369289
   19   C19        1.597414997    -1.149547498    -1.334469058     C.3   1  noname   -0.199751
   20   H20       -0.824013188    -1.592681541     4.331006244       H   1  noname    0.174955
   21   H21       -1.379730545    -1.681709629     2.658270642       H   1  noname    0.143413
   22   H22        0.169306037    -2.409972944     3.111192852       H   1  noname    0.164431
   23   H23       -1.563655258     0.977703998     2.735283011       H   1  noname    0.158831
   24   H24       -0.083655463     1.903498498     3.008099364       H   1  noname    0.167569
   25   H25       -0.863440566     1.047570055     4.346294090       H   1  noname    0.178852
   26   H26        1.994306087     0.723441429     3.966410430       H   1  noname    0.174966
   27   H27        0.949511824    -0.173926840     5.089924612       H   1  noname    0.159887
   28   H28        2.062859627    -1.037626945     4.001195079       H   1  noname    0.181351
   29   H29       -1.418210616    -0.328873242     1.358066864       H   1  noname   -0.023301
   30   H30       -1.323553386     2.116056883     0.339415626       H   1  noname    0.108274
   31   H31       -2.775287579     1.250926064     0.800472780       H   1  noname    0.101359
   32   H32       -1.889008448     1.899917128    -2.015555313       H   1  noname    0.057488
   33   H33       -3.400334612     2.191646663    -1.198251614       H   1  noname    0.088250
   34   H34       -3.535064268     0.348342570    -2.904180201       H   1  noname    0.100270
   35   H35       -3.986272265    -0.197539293    -1.291166341       H   1  noname    0.118267
   36   H36       -1.225822182    -0.588945591    -2.556601414       H   1  noname    0.076253
   37   H37       -2.454329701    -1.832703974    -2.395611109       H   1  noname    0.086509
   38   H38       -0.835335229    -2.018154789    -0.494311319       H   1  noname    0.076586
   39   H39       -2.480659713    -1.673706441     0.003408916       H   1  noname    0.088138
   40   H40        2.185795629     0.530227494    -0.212698059       H   1  noname   -0.011080
   41   H41       -0.218267063     1.163530181    -1.919093230       H   1  noname    0.216750
   42   H42        1.038393100     2.227861338    -1.319918717       H   1  noname    0.079263
   43   H43        1.683309901     1.947450278    -3.588949666       H   1  noname    0.090821
   44   H44        1.063950294     0.307972192    -3.674698664       H   1  noname    0.094634
   45   H45        3.550780191     1.100883633    -2.093649744       H   1  noname    0.060606
   46   H46        3.592378818     0.385742653    -3.693860330       H   1  noname    0.064319
   47   H47        2.940545546    -1.742061715    -2.928200999       H   1  noname    0.120378
   48   H48        3.756086885    -1.156334336    -1.483464702       H   1  noname    0.114263
   49   H49        1.726328211    -1.918512078    -0.567272239       H   1  noname    0.084276
   50   H50        0.782437519    -1.468083599    -1.993075571       H   1  noname    0.069003


@<TRIPOS>BOND
    1      1      2    1
    2      2      3    1
    3      2      4    1
    4      2      5    1
    5      5      6    2
    6      5      7    am
    7      7      8    1
    8      8      9    1
    9      9     10    1
   10     10     11    1
   11     11     12    1
   12     12     13    1
   13      7     14    1
   14     14     15    1
   15     15     16    1
   16     16     17    1
   17     17     18    1
   18     18     19    1
   19     13      8    1
   20     19     14    1
   21      1     20    1
   22      1     21    1
   23      1     22    1
   24      3     23    1
   25      3     24    1
   26      3     25    1
   27      4     26    1
   28      4     27    1
   29      4     28    1
   30      8     29    1
   31      9     30    1
   32      9     31    1
   33     10     32    1
   34     10     33    1
   35     11     34    1
   36     11     35    1
   37     12     36    1
   38     12     37    1
   39     13     38    1
   40     13     39    1
   41     14     40    1
   42     15     41    1
   43     15     42    1
   44     16     43    1
   45     16     44    1
   46     17     45    1
   47     17     46    1
   48     18     47    1
   49     18     48    1
   50     19     49    1
   51     19     50    1
#
#	File Created by: Spartan'20 Export
#

@<TRIPOS>MOLECULE
M0120
16 15
SMALL
USER_CHARGES


@<TRIPOS>ATOM
    1   C1        -1.124546192    -0.000004585     0.916331582     C.3   1  noname   -0.838544
    2   C2        -0.003633607    -0.000002374    -0.128583004     C.3   1  noname    1.141996
    3   C3         0.856695643     1.250455272     0.029460989     C.3   1  noname   -0.728637
    4   C4         0.856700028    -1.250455603     0.029456607     C.3   1  noname   -0.728638
    5   N5        -0.519153779    -0.000010275    -1.508730775     N.3   1  noname   -1.088415
    6   H6        -0.725449616     0.000001642     1.936545939       H   1  noname    0.190938
    7   H7        -1.757233255    -0.887237056     0.799832836       H   1  noname    0.170112
    8   H8        -1.757241668     0.887221472     0.799826939       H   1  noname    0.170111
    9   H9         1.648510693     1.256446334    -0.724005148       H   1  noname    0.175833
   10   H10        0.251737339     2.155161070    -0.101378693       H   1  noname    0.162722
   11   H11        1.310042215     1.289156225     1.024838822       H   1  noname    0.155720
   12   H12        1.310072510    -1.289142638     1.024822429       H   1  noname    0.155719
   13   H13        1.648498078    -1.256453710    -0.724028473       H   1  noname    0.175831
   14   H14        0.251739716    -2.155164021    -0.101356075       H   1  noname    0.162724
   15   H15       -1.123406985    -0.814098271    -1.636491496       H   1  noname    0.361266
   16   H16       -1.123331121     0.814126519    -1.636542479       H   1  noname    0.361264


@<TRIPOS>BOND
    1      1      2    1
    2      2      3    1
    3      2      4    1
    4      2      5    1
    5      1      6    1
    6      1      7    1
    7      1      8    1
    8      3      9    1
    9      3     10    1
   10      3     11    1
   11      4     12    1
   12      4     13    1
   13      4     14    1
   14      5     15    1
   15      5     16    1
#
#	File Created by: Spartan'20 Export
#

@<TRIPOS>MOLECULE
M0121
19 18
SMALL
USER_CHARGES


@<TRIPOS>ATOM
    1   C1        -0.738768605    -0.032476600     1.383662563     C.3   1  noname   -0.736176
    2   C2        -0.368260327     0.067357725    -0.094912902     C.3   1  noname    1.135756
    3   C3        -0.293911135    -1.335345171    -0.711839448     C.3   1  noname   -0.682255
    4   C4        -1.430105655     0.887076542    -0.825817061     C.3   1  noname   -0.912249
    5   N5         0.887736714     0.829750812    -0.222300826     N.3   1  noname   -0.829597
    6   C6         2.079001380     0.244533215     0.389820036     C.3   1  noname   -0.219305
    7   H7        -1.741145242    -0.457954775     1.492281963       H   1  noname    0.152602
    8   H8        -0.726249982     0.962195908     1.838089574       H   1  noname    0.185541
    9   H9        -0.045906255    -0.675500740     1.933989672       H   1  noname    0.170218
   10   H10       -0.017273863    -1.274094520    -1.770422293       H   1  noname    0.140479
   11   H11        0.442918493    -1.961592993    -0.201522765       H   1  noname    0.156948
   12   H12       -1.262509528    -1.841026113    -0.644975194       H   1  noname    0.142698
   13   H13       -1.488284638     1.890394971    -0.396032171       H   1  noname    0.205421
   14   H14       -1.181011087     0.982452184    -1.889241134       H   1  noname    0.187270
   15   H15       -2.411677916     0.408597180    -0.752852362       H   1  noname    0.211434
   16   H16        1.069300036     0.958220405    -1.218805407       H   1  noname    0.361779
   17   H17        2.316317031    -0.783283157     0.074955118       H   1  noname    0.075928
   18   H18        1.976526369     0.251758723     1.476932599       H   1  noname    0.123983
   19   H19        2.933304210     0.878936403     0.138990036       H   1  noname    0.129526


@<TRIPOS>BOND
    1      1      2    1
    2      2      3    1
    3      2      4    1
    4      2      5    1
    5      5      6    1
    6      1      7    1
    7      1      8    1
    8      1      9    1
    9      3     10    1
   10      3     11    1
   11      3     12    1
   12      4     13    1
   13      4     14    1
   14      4     15    1
   15      5     16    1
   16      6     17    1
   17      6     18    1
   18      6     19    1
#
#	File Created by: Spartan'20 Export
#

@<TRIPOS>MOLECULE
M0122
18 17
SMALL
USER_CHARGES


@<TRIPOS>ATOM
    1   C1        -1.166901465     0.000521624    -1.446571743     C.3   1  noname   -0.903227
    2   C2        -0.133408696    -0.001636992    -0.328562343     C.3   1  noname    1.130944
    3   C3         0.727936241     1.257366185    -0.401686482     C.3   1  noname   -0.736587
    4   C4         0.726354052    -1.261565701    -0.405325347     C.3   1  noname   -0.755190
    5   O5        -0.947483558    -0.003575731     0.861450255     O.3   1  noname   -0.491983
    6   C6        -0.260925796     0.003535426     2.104039639     C.3   1  noname   -0.293057
    7   H7        -0.680798542     0.000579992    -2.426653035       H   1  noname    0.203072
    8   H8        -1.800076653     0.887731243    -1.363675507       H   1  noname    0.208851
    9   H9        -1.802226108    -0.885265794    -1.364923651       H   1  noname    0.209820
   10   H10        1.216811123     1.322916640    -1.378512663       H   1  noname    0.162516
   11   H11        1.511799186     1.261268527     0.360758142       H   1  noname    0.163876
   12   H12        0.101267246     2.143388351    -0.264455279       H   1  noname    0.175381
   13   H13        0.098069630    -2.147036892    -0.272674279       H   1  noname    0.180307
   14   H14        1.217108466    -1.323978986    -1.381406127       H   1  noname    0.166957
   15   H15        1.508709259    -1.269754062     0.358594772       H   1  noname    0.168214
   16   H16        0.372876384    -0.880775383     2.240059478       H   1  noname    0.121316
   17   H17        0.350958023     0.902938987     2.241443522       H   1  noname    0.122906
   18   H18       -1.040068793    -0.006657434     2.868100648       H   1  noname    0.165883


@<TRIPOS>BOND
    1      1      2    1
    2      2      3    1
    3      2      4    1
    4      2      5    1
    5      5      6    1
    6      1      7    1
    7      1      8    1
    8      1      9    1
    9      3     10    1
   10      3     11    1
   11      3     12    1
   12      4     13    1
   13      4     14    1
   14      4     15    1
   15      6     16    1
   16      6     17    1
   17      6     18    1
#
#	File Created by: Spartan'20 Export
#

@<TRIPOS>MOLECULE
M0123
27 26
SMALL
USER_CHARGES


@<TRIPOS>ATOM
    1   C1         1.433286620     1.000048097     1.001166377     C.3   1  noname   -0.816740
    2   C2         1.290356881    -0.008666325    -0.136185115     C.3   1  noname    1.223239
    3   C3         2.214297437     0.394077515    -1.283750845     C.3   1  noname   -0.755159
    4   C4         1.661360197    -1.416970041     0.334212726     C.3   1  noname   -0.835031
    5   O5         0.000002779     0.000036483    -0.787453126     O.3   1  noname   -0.811840
    6   C6        -1.290352542     0.008678664    -0.136186323     C.3   1  noname    1.223246
    7   C7        -2.214275258    -0.394090158    -1.283761397     C.3   1  noname   -0.755162
    8   C8        -1.661404175     1.416967031     0.334225465     C.3   1  noname   -0.835050
    9   C9        -1.433263301    -1.000039622     1.001161838     C.3   1  noname   -0.816739
   10   H10        2.475346467     1.013072921     1.337481028       H   1  noname    0.175345
   11   H11        0.812969225     0.744702230     1.863096217       H   1  noname    0.170223
   12   H12        1.171450396     2.004470060     0.659395778       H   1  noname    0.185019
   13   H13        1.946981170     1.391360826    -1.642452099       H   1  noname    0.170862
   14   H14        2.102046158    -0.311245162    -2.111221279       H   1  noname    0.183877
   15   H15        3.259804887     0.398825867    -0.960045255       H   1  noname    0.156396
   16   H16        2.727312953    -1.458625003     0.582254249       H   1  noname    0.175338
   17   H17        1.463002803    -2.131368900    -0.469491169       H   1  noname    0.183306
   18   H18        1.100877751    -1.720691432     1.219289648       H   1  noname    0.189244
   19   H19       -2.102054672     0.311248045    -2.111222744       H   1  noname    0.183878
   20   H20       -3.259782298    -0.398886381    -0.960056372       H   1  noname    0.156397
   21   H21       -1.946917091    -1.391356775    -1.642477379       H   1  noname    0.170861
   22   H22       -2.727349366     1.458555125     0.582353514       H   1  noname    0.175343
   23   H23       -1.463160807     2.131365379    -0.469537088       H   1  noname    0.183305
   24   H24       -1.100847694     1.720753935     1.219245882       H   1  noname    0.189253
   25   H25       -1.171404796    -2.004453969     0.659392766       H   1  noname    0.185018
   26   H26       -0.812959678    -0.744677153     1.863095525       H   1  noname    0.170225
   27   H27       -2.475324048    -1.013091257     1.337469176       H   1  noname    0.175345


@<TRIPOS>BOND
    1      1      2    1
    2      2      3    1
    3      2      4    1
    4      2      5    1
    5      5      6    1
    6      6      7    1
    7      6      8    1
    8      6      9    1
    9      1     10    1
   10      1     11    1
   11      1     12    1
   12      3     13    1
   13      3     14    1
   14      3     15    1
   15      4     16    1
   16      4     17    1
   17      4     18    1
   18      7     19    1
   19      7     20    1
   20      7     21    1
   21      8     22    1
   22      8     23    1
   23      8     24    1
   24      9     25    1
   25      9     26    1
   26      9     27    1
#
#	File Created by: Spartan'20 Export
#

@<TRIPOS>MOLECULE
M0124
28 27
SMALL
USER_CHARGES


@<TRIPOS>ATOM
    1   C1         2.142014660     1.076871354     1.124391408     C.3   1  noname   -0.702983
    2   C2         1.771397460     0.040320994     0.071428034     C.3   1  noname    1.076420
    3   C3         1.744931633     0.637318161    -1.328964387     C.3   1  noname   -0.762281
    4   C4         2.693833675    -1.171062252     0.139766100     C.3   1  noname   -0.800410
    5   O5         0.495481627    -0.555028178     0.393795812     O.3   1  noname   -0.393024
    6   O6        -0.495480969     0.555010037     0.393912193     O.3   1  noname   -0.393023
    7   C7        -1.771375283    -0.040317898     0.071461363     C.3   1  noname    1.076414
    8   C8        -1.744909612    -0.637310352    -1.328937316     C.3   1  noname   -0.762275
    9   C9        -2.142036293    -1.076880051     1.124393784     C.3   1  noname   -0.702987
   10   C10       -2.693821474     1.171074302     0.139768787     C.3   1  noname   -0.800411
   11   H11        2.109261136     0.621817687     2.117724364       H   1  noname    0.163473
   12   H12        1.441380321     1.913730775     1.100564664       H   1  noname    0.177145
   13   H13        3.151764613     1.458257495     0.942850474       H   1  noname    0.151989
   14   H14        2.737587021     1.012508252    -1.597673102       H   1  noname    0.169303
   15   H15        1.450271923    -0.125917869    -2.055584099       H   1  noname    0.176767
   16   H16        1.032053631     1.462436545    -1.376575988       H   1  noname    0.179594
   17   H17        2.664440385    -1.614908615     1.138622778       H   1  noname    0.191009
   18   H18        3.721070736    -0.866645662    -0.080151019       H   1  noname    0.183748
   19   H19        2.387419929    -1.924852661    -0.590300707       H   1  noname    0.189250
   20   H20       -1.450173535     0.125854068    -2.055553915       H   1  noname    0.176774
   21   H21       -2.737568427    -1.012423812    -1.597659491       H   1  noname    0.169302
   22   H22       -1.032124952    -1.462482459    -1.376534042       H   1  noname    0.179591
   23   H23       -3.151781603    -1.458218913     0.942750936       H   1  noname    0.151987
   24   H24       -2.109341590    -0.621862993     2.117751067       H   1  noname    0.163472
   25   H25       -1.441406253    -1.913743770     1.100591978       H   1  noname    0.177148
   26   H26       -3.721044048     0.866649718    -0.080198644       H   1  noname    0.183750
   27   H27       -2.664472703     1.614916520     1.138634449       H   1  noname    0.191009
   28   H28       -2.387372006     1.924889578    -0.590275483       H   1  noname    0.189247


@<TRIPOS>BOND
    1      1      2    1
    2      2      3    1
    3      2      4    1
    4      2      5    1
    5      5      6    1
    6      6      7    1
    7      7      8    1
    8      7      9    1
    9      7     10    1
   10      1     11    1
   11      1     12    1
   12      1     13    1
   13      3     14    1
   14      3     15    1
   15      3     16    1
   16      4     17    1
   17      4     18    1
   18      4     19    1
   19      8     20    1
   20      8     21    1
   21      8     22    1
   22      9     23    1
   23      9     24    1
   24      9     25    1
   25     10     26    1
   26     10     27    1
   27     10     28    1
#
#	File Created by: Spartan'20 Export
#

@<TRIPOS>MOLECULE
M0125
23 23
SMALL
USER_CHARGES


@<TRIPOS>ATOM
    1   C1         0.622436300     1.254013453    -1.604204477     C.3   1  noname   -0.753087
    2   C2        -0.100006078     0.000023802    -1.090429797     C.3   1  noname    0.768242
    3   C3         0.622424048    -1.254002709    -1.604142046     C.3   1  noname   -0.753061
    4   C4        -1.533633962     0.000010501    -1.620949137     C.3   1  noname   -0.744884
    5   C5        -0.082191109     0.000038327     0.432236955     C.2   1  noname    0.641829
    6   C6         1.132882135     0.000027895     1.136916270     C.2   1  noname   -0.621166
    7   C7         1.122229717    -0.000021069     2.528551905     C.2   1  noname    0.208764
    8   C8        -0.106167910    -0.000046069     3.189924154     C.2   1  noname   -0.483794
    9   C9        -1.265390969    -0.000003631     2.417980974     C.2   1  noname    0.365021
   10   N10       -1.268444650     0.000029934     1.072303844     N.2   1  noname   -0.711077
   11   H11        1.670131706     1.277342611    -1.287971272       H   1  noname    0.159046
   12   H12        0.601509352     1.277652422    -2.699445805       H   1  noname    0.185465
   13   H13        0.133047961     2.159913470    -1.232077312       H   1  noname    0.159566
   14   H14        0.601464532    -1.277715387    -2.699399105       H   1  noname    0.185454
   15   H15        0.133022703    -2.159882216    -1.231927577       H   1  noname    0.159560
   16   H16        1.670139323    -1.277317026    -1.287926225       H   1  noname    0.159042
   17   H17       -1.512673119    -0.000000922    -2.716615650       H   1  noname    0.172535
   18   H18       -2.081523208     0.881191622    -1.279197823       H   1  noname    0.169597
   19   H19       -2.081506912    -0.881178605    -1.279186251       H   1  noname    0.169599
   20   H20        2.079567128     0.000065103     0.603609818       H   1  noname    0.202233
   21   H21        2.055443438    -0.000045673     3.087179441       H   1  noname    0.103052
   22   H22       -0.165747290    -0.000098554     4.274766338       H   1  noname    0.183315
   23   H23       -2.247013137     0.000002718     2.890002776       H   1  noname    0.074751


@<TRIPOS>BOND
    1      1      2    1
    2      2      3    1
    3      2      4    1
    4      2      5    1
    5      5      6    2
    6      6      7    1
    7      7      8    2
    8      8      9    1
    9      9     10    2
   10     10      5    1
   11      1     11    1
   12      1     12    1
   13      1     13    1
   14      3     14    1
   15      3     15    1
   16      3     16    1
   17      4     17    1
   18      4     18    1
   19      4     19    1
   20      6     20    1
   21      7     21    1
   22      8     22    1
   23      9     23    1
#
#	File Created by: Spartan'20 Export
#

@<TRIPOS>MOLECULE
M0126
23 23
SMALL
USER_CHARGES


@<TRIPOS>ATOM
    1   C1         0.728188917     1.254326792    -1.453966590     C.3   1  noname   -0.756019
    2   C2        -0.010600508     0.000054656    -0.964951858     C.3   1  noname    0.795611
    3   C3        -1.416876610     0.000125598    -1.567357528     C.3   1  noname   -0.712167
    4   C4         0.728003710    -1.254386881    -1.453821219     C.3   1  noname   -0.753305
    5   C5        -0.038527574     0.000072300     0.557835549     C.2   1  noname    0.527534
    6   C6         1.159230141     0.000152702     1.288877940     C.2   1  noname   -0.688335
    7   C7         1.129857293     0.000058904     2.681202764     C.2   1  noname    0.483346
    8   N8        -0.002296891    -0.000127560     3.409322977     N.2   1  noname   -0.703012
    9   C9        -1.148391917    -0.000203198     2.708859851     C.2   1  noname    0.529535
   10   C10       -1.216084204    -0.000117037     1.313837692     C.2   1  noname   -0.756827
   11   H11        0.751402043     1.273857632    -2.549450043       H   1  noname    0.183338
   12   H12        1.761149063     1.279326478    -1.094392390       H   1  noname    0.172867
   13   H13        0.223765430     2.160799766    -1.103542969       H   1  noname    0.157102
   14   H14       -1.982578688    -0.888453629    -1.270305381       H   1  noname    0.158714
   15   H15       -1.344575507     0.000138573    -2.659635451       H   1  noname    0.171893
   16   H16       -1.982523830     0.888734165    -1.270281973       H   1  noname    0.158783
   17   H17        1.761011952    -1.279368675    -1.094396132       H   1  noname    0.172143
   18   H18        0.223563282    -2.160718858    -1.103077989       H   1  noname    0.156405
   19   H19        0.751029617    -1.274195015    -2.549299292       H   1  noname    0.182810
   20   H20        2.122423388     0.000311739     0.785366368       H   1  noname    0.202514
   21   H21        2.058635234     0.000131958     3.249689718       H   1  noname    0.051260
   22   H22       -2.063718298    -0.000351375     3.299134123       H   1  noname    0.042123
   23   H23       -2.192086046    -0.000169033     0.840351834       H   1  noname    0.223688


@<TRIPOS>BOND
    1      1      2    1
    2      2      3    1
    3      2      4    1
    4      2      5    1
    5      5      6    2
    6      6      7    1
    7      7      8    2
    8      8      9    1
    9      9     10    2
   10     10      5    1
   11      1     11    1
   12      1     12    1
   13      1     13    1
   14      3     14    1
   15      3     15    1
   16      3     16    1
   17      4     17    1
   18      4     18    1
   19      4     19    1
   20      6     20    1
   21      7     21    1
   22      9     22    1
   23     10     23    1
#
#	File Created by: Spartan'20 Export
#

@<TRIPOS>MOLECULE
M0127
21 20
SMALL
USER_CHARGES


@<TRIPOS>ATOM
    1   C1        -1.825512667    -0.218012657    -0.933783278     C.3   1  noname   -0.787224
    2   C2        -1.115025784    -0.004214375     0.408982559     C.3   1  noname    0.472490
    3   C3        -1.966035867     0.847500913     1.346056310     C.3   1  noname   -0.794767
    4   C4         0.221147587     0.688345439     0.155359712     C.2   1  noname    0.467337
    5   O5         0.315930404     1.918657237     0.251322798     O.2   1  noname   -0.576578
    6   N6         1.279638633    -0.086175096    -0.264592090    N.am   1  noname    0.055329
    7   C7         1.320011970    -1.537795550    -0.206081009     C.3   1  noname   -0.677766
    8   C8         2.570392772     0.560230539    -0.450807162     C.3   1  noname   -0.551480
    9   H9        -1.979178241     0.749314251    -1.420905869       H   1  noname    0.216697
   10   H10       -1.246228765    -0.849225183    -1.613102261       H   1  noname    0.173949
   11   H11       -2.803007604    -0.684413686    -0.779587484       H   1  noname    0.204364
   12   H12       -0.949596660    -0.975673239     0.886964101       H   1  noname    0.008778
   13   H13       -2.924258898     0.353040611     1.533988246       H   1  noname    0.192184
   14   H14       -1.461791128     1.002906743     2.303226341       H   1  noname    0.184757
   15   H15       -2.149229701     1.827995661     0.903735061       H   1  noname    0.222477
   16   H16        1.989425347    -1.896171633    -0.993238451       H   1  noname    0.225398
   17   H17        0.338367097    -1.969763941    -0.385315686       H   1  noname    0.203099
   18   H18        1.701169787    -1.900680320     0.757892720       H   1  noname    0.196432
   19   H19        3.036092288     0.187592620    -1.368260433       H   1  noname    0.173716
   20   H20        3.240648943     0.353697506     0.393009201       H   1  noname    0.183791
   21   H21        2.407040488     1.632844160    -0.524863326       H   1  noname    0.207016


@<TRIPOS>BOND
    1      1      2    1
    2      2      3    1
    3      2      4    1
    4      4      5    2
    5      4      6    am
    6      6      7    1
    7      6      8    1
    8      1      9    1
    9      1     10    1
   10      1     11    1
   11      2     12    1
   12      3     13    1
   13      3     14    1
   14      3     15    1
   15      7     16    1
   16      7     17    1
   17      7     18    1
   18      8     19    1
   19      8     20    1
   20      8     21    1
#
#	File Created by: Spartan'20 Export
#

@<TRIPOS>MOLECULE
M0128
47 48
SMALL
USER_CHARGES


@<TRIPOS>ATOM
    1   C1        -0.884910617     3.909362348    -1.291666757     C.3   1  noname   -0.770688
    2   C2        -0.109159340     2.900920495    -0.445757312     C.3   1  noname    0.428355
    3   C3         0.283629146     3.511573766     0.904748314     C.3   1  noname   -0.667098
    4   C4        -0.993455561     1.678654947    -0.194921893     C.2   1  noname    0.720701
    5   O5        -2.212056074     1.850314515    -0.033018090     O.2   1  noname   -0.644257
    6   N6        -0.429588623     0.420389219    -0.135926445    N.am   1  noname   -1.118105
    7   C7        -1.409747173    -0.671582494     0.059088532     C.3   1  noname    0.862071
    8   C8        -1.739367929    -0.891556061     1.550458581     C.3   1  noname   -0.332861
    9   C9        -2.400311349    -2.257546778     1.790278626     C.3   1  noname   -0.239965
   10   C10       -3.277393917    -2.631608899     0.598459228     C.3   1  noname   -0.131738
   11   C11       -2.409280332    -2.841815609    -0.657176628     C.3   1  noname   -0.245479
   12   C12       -1.116310588    -1.997505126    -0.641938846     C.3   1  noname   -0.384679
   13   C13        1.030683645     0.228742122    -0.167696606     C.3   1  noname    0.880240
   14   C14        1.600566181    -0.724344124     0.887465814     C.3   1  noname   -0.349937
   15   C15        3.127640640    -0.519785732     0.977163678     C.3   1  noname   -0.242871
   16   C16        3.762791540    -0.164266759    -0.380738471     C.3   1  noname   -0.148085
   17   C17        2.949210429    -0.774957474    -1.518217576     C.3   1  noname   -0.164627
   18   C18        1.556148088    -0.130435267    -1.574212503     C.3   1  noname   -0.438439
   19   H19       -1.800380459     4.205638802    -0.778195178       H   1  noname    0.214339
   20   H20       -0.269241351     4.795839525    -1.474429265       H   1  noname    0.187741
   21   H21       -1.164226095     3.478301778    -2.257111162       H   1  noname    0.171939
   22   H22        0.793171748     2.626851029    -1.000088910       H   1  noname   -0.019306
   23   H23        0.871372790     2.818878486     1.516250596       H   1  noname    0.133440
   24   H24        0.872604916     4.422553669     0.758694454       H   1  noname    0.175247
   25   H25       -0.622659653     3.768925324     1.460707633       H   1  noname    0.186583
   26   H26       -2.315962482    -0.275112835    -0.408717143       H   1  noname    0.010312
   27   H27       -0.833423718    -0.803659997     2.155343568       H   1  noname    0.083211
   28   H28       -2.406661620    -0.078870597     1.857767261       H   1  noname    0.111874
   29   H29       -2.982437187    -2.237023879     2.718367358       H   1  noname    0.100245
   30   H30       -1.631961144    -3.029999360     1.924524600       H   1  noname    0.101833
   31   H31       -3.863337372    -3.534710181     0.806492934       H   1  noname    0.075144
   32   H32       -4.002111796    -1.825753351     0.427164034       H   1  noname    0.080457
   33   H33       -2.137017660    -3.899251387    -0.748577479       H   1  noname    0.111852
   34   H34       -2.992117186    -2.593048895    -1.551042937       H   1  noname    0.086853
   35   H35       -0.790146725    -1.833150520    -1.672226274       H   1  noname    0.108316
   36   H36       -0.318588466    -2.549612785    -0.136031071       H   1  noname    0.114023
   37   H37        1.453315504     1.198004889     0.101953314       H   1  noname   -0.013156
   38   H38        1.150100987    -0.523024136     1.862703571       H   1  noname    0.103628
   39   H39        1.374329052    -1.764565595     0.639014488       H   1  noname    0.111501
   40   H40        3.347229768     0.271042612     1.704286649       H   1  noname    0.081082
   41   H41        3.583293838    -1.435837942     1.370774767       H   1  noname    0.114056
   42   H42        3.795977025     0.924653990    -0.513712368       H   1  noname    0.070667
   43   H43        4.802858990    -0.506428801    -0.410368971       H   1  noname    0.078901
   44   H44        2.855579607    -1.855224978    -1.351013112       H   1  noname    0.095164
   45   H45        3.459231526    -0.654616705    -2.480614068       H   1  noname    0.090116
   46   H46        0.851235370    -0.794771276    -2.076399943       H   1  noname    0.119143
   47   H47        1.590883631     0.789420026    -2.171908993       H   1  noname    0.102259


@<TRIPOS>BOND
    1      1      2    1
    2      2      3    1
    3      2      4    1
    4      4      5    2
    5      4      6    am
    6      6      7    1
    7      7      8    1
    8      8      9    1
    9      9     10    1
   10     10     11    1
   11     11     12    1
   12      6     13    1
   13     13     14    1
   14     14     15    1
   15     15     16    1
   16     16     17    1
   17     17     18    1
   18     12      7    1
   19     18     13    1
   20      1     19    1
   21      1     20    1
   22      1     21    1
   23      2     22    1
   24      3     23    1
   25      3     24    1
   26      3     25    1
   27      7     26    1
   28      8     27    1
   29      8     28    1
   30      9     29    1
   31      9     30    1
   32     10     31    1
   33     10     32    1
   34     11     33    1
   35     11     34    1
   36     12     35    1
   37     12     36    1
   38     13     37    1
   39     14     38    1
   40     14     39    1
   41     15     40    1
   42     15     41    1
   43     16     42    1
   44     16     43    1
   45     17     44    1
   46     17     45    1
   47     18     46    1
   48     18     47    1
#
#	File Created by: Spartan'20 Export
#

@<TRIPOS>MOLECULE
M0129
28 29
SMALL
USER_CHARGES


@<TRIPOS>ATOM
    1   C1        -2.717669707     0.908052449    -0.751874028     C.3   1  noname   -0.714176
    2   C2        -2.004580670     0.188371047     0.393836465     C.3   1  noname    0.373151
    3   C3        -2.590044411    -1.210816645     0.596448226     C.3   1  noname   -0.692928
    4   C4        -0.481027310     0.132443716     0.219844890     C.3   1  noname    0.460645
    5   C5         0.024563831    -0.680833243    -0.979183517     C.3   1  noname   -0.151516
    6   C6         1.554603606    -0.496738948    -1.083099729     C.3   1  noname   -0.461608
    7   C7         2.025792998     0.398594402     0.065645830     C.3   1  noname    0.806214
    8   C8         1.575337966    -0.175136466     1.375214542     C.2   1  noname   -0.327040
    9   C9         0.242324254    -0.312689315     1.458987105     C.2   1  noname   -0.353606
   10   O10        1.367339517     1.688924436    -0.102352060     O.3   1  noname   -0.290820
   11   O11       -0.119509252     1.526634068    -0.027325572     O.3   1  noname   -0.316693
   12   C12        3.498057696     0.748898152     0.003648157     C.3   1  noname   -0.900072
   13   H13       -2.611280959     0.358150186    -1.691852975       H   1  noname    0.168632
   14   H14       -2.325154727     1.915769940    -0.895324157       H   1  noname    0.180454
   15   H15       -3.787523100     0.979009199    -0.530331836       H   1  noname    0.184838
   16   H16       -2.169367005     0.771275436     1.310547191       H   1  noname    0.017301
   17   H17       -2.524531621    -1.797996517    -0.324467718       H   1  noname    0.161171
   18   H18       -3.648209466    -1.132834862     0.864566748       H   1  noname    0.183010
   19   H19       -2.083268939    -1.765744486     1.391396157       H   1  noname    0.157405
   20   H20       -0.468867974    -0.319417202    -1.885899600       H   1  noname    0.095430
   21   H21       -0.238954364    -1.735271142    -0.849137180       H   1  noname    0.087119
   22   H22        1.827629491    -0.005593680    -2.022959862       H   1  noname    0.143986
   23   H23        2.081997991    -1.456258212    -1.039140858       H   1  noname    0.137509
   24   H24        2.271261565    -0.384533147     2.184860096       H   1  noname    0.186519
   25   H25       -0.285214219    -0.640846640     2.351637052       H   1  noname    0.183151
   26   H26        3.733908695     1.224669409    -0.951735367       H   1  noname    0.231746
   27   H27        4.096203659    -0.162045293     0.104162426       H   1  noname    0.214716
   28   H28        3.756182452     1.435963359     0.813889574       H   1  noname    0.235462


@<TRIPOS>BOND
    1      1      2    1
    2      2      3    1
    3      2      4    1
    4      4      5    1
    5      5      6    1
    6      6      7    1
    7      7      8    1
    8      8      9    2
    9      7     10    1
   10     10     11    1
   11      7     12    1
   12      9      4    1
   13     11      4    1
   14      1     13    1
   15      1     14    1
   16      1     15    1
   17      2     16    1
   18      3     17    1
   19      3     18    1
   20      3     19    1
   21      5     20    1
   22      5     21    1
   23      6     22    1
   24      6     23    1
   25      8     24    1
   26      9     25    1
   27     12     26    1
   28     12     27    1
   29     12     28    1
#
#	File Created by: Spartan'20 Export
#

@<TRIPOS>MOLECULE
M0130
34 33
SMALL
USER_CHARGES


@<TRIPOS>ATOM
    1   C1         2.982191950    -1.263050674    -0.782877485     C.3   1  noname   -0.915892
    2   C2         1.807591207    -0.956632473     0.145527180     C.3   1  noname    0.695509
    3   C3         2.273442001    -0.222776690     1.397233711     C.3   1  noname   -0.720714
    4   C4         0.736859566    -0.177760793    -0.631867450     C.3   1  noname   -0.117827
    5   N5        -0.467488188     0.162457409     0.148410757     N.3   1  noname   -0.803634
    6   C6        -0.813759020     1.598993558     0.041194247     C.3   1  noname    0.936324
    7   C7         0.257882769     2.460737941     0.709643746     C.3   1  noname   -0.869841
    8   C8        -2.148580158     1.919418039     0.713975698     C.3   1  noname   -0.864383
    9   C9        -1.603108548    -0.740122052    -0.148516537     C.3   1  noname    0.783985
   10   C10       -2.180789954    -0.618269454    -1.565494538     C.3   1  noname   -0.769358
   11   C11       -1.249865821    -2.191790915     0.161688501     C.3   1  noname   -0.800791
   12   H12        2.659484774    -1.824068314    -1.666261826       H   1  noname    0.183228
   13   H13        3.453302165    -0.334918875    -1.126375586       H   1  noname    0.206271
   14   H14        3.746423710    -1.854053083    -0.268759584       H   1  noname    0.219057
   15   H15        1.368610600    -1.908067101     0.464106428       H   1  noname   -0.022364
   16   H16        1.421195383     0.020720704     2.035216630       H   1  noname    0.169738
   17   H17        2.974030445    -0.842563914     1.967102517       H   1  noname    0.153112
   18   H18        2.789335885     0.707897171     1.135673262       H   1  noname    0.175913
   19   H19        1.196909968     0.742348324    -1.012695651       H   1  noname    0.076821
   20   H20        0.473971135    -0.756834832    -1.529929557       H   1  noname    0.076624
   21   H21       -0.883235476     1.905166864    -1.020337214       H   1  noname   -0.074077
   22   H22        0.002707205     3.519436307     0.592833644       H   1  noname    0.180691
   23   H23        0.303220282     2.227753657     1.777194651       H   1  noname    0.225058
   24   H24        1.252472776     2.314261675     0.286083145       H   1  noname    0.209131
   25   H25       -2.147204922     1.539494194     1.740610930       H   1  noname    0.204583
   26   H26       -3.010816995     1.506686073     0.187248511       H   1  noname    0.187873
   27   H27       -2.279301210     3.004928788     0.752375798       H   1  noname    0.197634
   28   H28       -2.392119058    -0.467966170     0.557442699       H   1  noname   -0.006835
   29   H29       -3.069342282    -1.251411442    -1.660819609       H   1  noname    0.170673
   30   H30       -2.474575664     0.408273022    -1.798803245       H   1  noname    0.161643
   31   H31       -1.462698898    -0.944279587    -2.323078963       H   1  noname    0.190059
   32   H32       -2.152470902    -2.809037046     0.100781900       H   1  noname    0.180733
   33   H33       -0.838740459    -2.275806274     1.170684080       H   1  noname    0.184088
   34   H34       -0.525534266    -2.599164036    -0.549210791       H   1  noname    0.196970


@<TRIPOS>BOND
    1      1      2    1
    2      2      3    1
    3      2      4    1
    4      4      5    1
    5      5      6    1
    6      6      7    1
    7      6      8    1
    8      5      9    1
    9      9     10    1
   10      9     11    1
   11      1     12    1
   12      1     13    1
   13      1     14    1
   14      2     15    1
   15      3     16    1
   16      3     17    1
   17      3     18    1
   18      4     19    1
   19      4     20    1
   20      6     21    1
   21      7     22    1
   22      7     23    1
   23      7     24    1
   24      8     25    1
   25      8     26    1
   26      8     27    1
   27      9     28    1
   28     10     29    1
   29     10     30    1
   30     10     31    1
   31     11     32    1
   32     11     33    1
   33     11     34    1
#
#	File Created by: Spartan'20 Export
#

@<TRIPOS>MOLECULE
M0131
11 10
SMALL
USER_CHARGES


@<TRIPOS>ATOM
    1   C1        -0.130560953     1.265789064    -0.242830225     C.3   1  noname   -0.652825
    2   C2         0.395368855     0.000000414     0.410016235     C.3   1  noname    0.431711
    3   C3        -0.130557186    -1.265789206    -0.242831651     C.3   1  noname   -0.652823
    4   Cl4       -0.049625392    -0.000006146     2.156433804      Cl   1  noname   -0.252562
    5   H5         0.262834253     2.156907973     0.250104913       H   1  noname    0.166777
    6   H6         0.172887023     1.286131958    -1.294188195       H   1  noname    0.177971
    7   H7        -1.221843269     1.294943417    -0.194408757       H   1  noname    0.192414
    8   H8         1.487604969     0.000001778     0.396200145       H   1  noname    0.052177
    9   H9        -1.221840569    -1.294931722    -0.194428805       H   1  noname    0.192414
   10   H10        0.172908743    -1.286140612    -1.294184460       H   1  noname    0.177970
   11   H11        0.262823527    -2.156906918     0.250116996       H   1  noname    0.166777


@<TRIPOS>BOND
    1      1      2    1
    2      2      3    1
    3      2      4    1
    4      1      5    1
    5      1      6    1
    6      1      7    1
    7      2      8    1
    8      3      9    1
    9      3     10    1
   10      3     11    1
#
#	File Created by: Spartan'20 Export
#

@<TRIPOS>MOLECULE
M0132
13 12
SMALL
USER_CHARGES


@<TRIPOS>ATOM
    1   C1         1.131246503     0.454320273     0.549352520     C.3   1  noname   -0.826425
    2   C2        -0.026867123     0.179038914    -0.410467920     C.3   1  noname    0.864762
    3   C3        -0.392443597    -1.298630360    -0.430765123     C.3   1  noname   -0.752260
    4   N4        -1.241451840     0.953234079    -0.118239101     N.3   1  noname   -1.069299
    5   H5         0.849096981     0.173798711     1.570368243       H   1  noname    0.187847
    6   H6         1.391942012     1.517671301     0.549707433       H   1  noname    0.171602
    7   H7         2.026686281    -0.113470113     0.276842082       H   1  noname    0.189885
    8   H8         0.284103688     0.469590624    -1.421631657       H   1  noname   -0.038036
    9   H9        -0.717215263    -1.624028752     0.564136266       H   1  noname    0.187588
   10   H10       -1.209552579    -1.478414361    -1.132333182       H   1  noname    0.184000
   11   H11        0.466301219    -1.910729281    -0.719719211       H   1  noname    0.162930
   12   H12       -1.013776152     1.947741267    -0.106750449       H   1  noname    0.360466
   13   H13       -1.548070130     0.729877699     0.829500098       H   1  noname    0.376941


@<TRIPOS>BOND
    1      1      2    1
    2      2      3    1
    3      2      4    1
    4      1      5    1
    5      1      6    1
    6      1      7    1
    7      2      8    1
    8      3      9    1
    9      3     10    1
   10      3     11    1
   11      4     12    1
   12      4     13    1
#
#	File Created by: Spartan'20 Export
#

@<TRIPOS>MOLECULE
M0133
36 35
SMALL
USER_CHARGES


@<TRIPOS>ATOM
    1   C1        -1.249093264    -2.016593664    -0.234597117     C.3   1  noname   -0.897992
    2   C2        -1.163864244    -0.595183899    -0.791709919     C.3   1  noname    0.912376
    3   C3        -0.639399888    -0.528694147    -2.228208858     C.3   1  noname   -0.884276
    4   N4        -0.541763101     0.405407848     0.109134481   N.pl3   1  noname   -0.731471
    5   C5        -1.441486387     1.535397057     0.462291092     C.3   1  noname    0.752857
    6   C6        -2.644157331     1.033471639     1.258072377     C.3   1  noname   -0.827363
    7   C7        -1.844914868     2.394623614    -0.733069852     C.3   1  noname   -0.742417
    8   C8         0.817745903     0.741578283     0.178017323     C.2   1  noname    0.517808
    9   O9         1.138409481     1.937183204     0.241461012     O.2   1  noname   -0.585815
   10   C10        1.914525150    -0.316153888     0.470664037     C.3   1  noname    0.944325
   11   C11        3.205658047     0.453876521     0.781560085     C.3   1  noname   -0.765176
   12   C12        2.245207406    -1.288976493    -0.667407370     C.3   1  noname   -0.853386
   13   C13        1.501581245    -1.085731147     1.733919270     C.3   1  noname   -0.913892
   14   H14       -1.921462285    -2.606704267    -0.866978970       H   1  noname    0.191991
   15   H15       -1.660053130    -1.997105523     0.777902093       H   1  noname    0.202978
   16   H16       -0.289516319    -2.531148522    -0.207600832       H   1  noname    0.224401
   17   H17       -2.202564664    -0.263201589    -0.854347708       H   1  noname   -0.013763
   18   H18       -1.247699487    -1.175504950    -2.869903884       H   1  noname    0.189196
   19   H19        0.395905239    -0.851048849    -2.314622673       H   1  noname    0.228008
   20   H20       -0.710761340     0.493722695    -2.605979088       H   1  noname    0.206868
   21   H21       -0.848035047     2.165460152     1.126462714       H   1  noname    0.022138
   22   H22       -3.192242498     1.891799233     1.659195312       H   1  noname    0.192412
   23   H23       -3.348335543     0.455771482     0.651812411       H   1  noname    0.196904
   24   H24       -2.314650943     0.412759870     2.095365179       H   1  noname    0.179570
   25   H25       -2.454722482     1.836023414    -1.450186509       H   1  noname    0.163335
   26   H26       -0.951171354     2.770953928    -1.234065306       H   1  noname    0.189976
   27   H27       -2.438186667     3.250745210    -0.394562342       H   1  noname    0.167366
   28   H28        3.069632248     1.133355827     1.624376300       H   1  noname    0.182245
   29   H29        3.526180372     1.048464890    -0.075300749       H   1  noname    0.170476
   30   H30        3.995906301    -0.263713027     1.028013191       H   1  noname    0.170903
   31   H31        1.433031352    -1.972140252    -0.907812102       H   1  noname    0.199473
   32   H32        2.529692380    -0.746910720    -1.574983760       H   1  noname    0.179873
   33   H33        3.102708675    -1.898907250    -0.362814259       H   1  noname    0.200973
   34   H34        0.609943959    -1.692144925     1.577493250       H   1  noname    0.214307
   35   H35        2.320976250    -1.743756885     2.046131151       H   1  noname    0.213556
   36   H36        1.296976835    -0.386974868     2.552280021       H   1  noname    0.201234


@<TRIPOS>BOND
    1      1      2    1
    2      2      3    1
    3      2      4    1
    4      4      5    1
    5      5      6    1
    6      5      7    1
    7      4      8    1
    8      8      9    2
    9      8     10    1
   10     10     11    1
   11     10     12    1
   12     10     13    1
   13      1     14    1
   14      1     15    1
   15      1     16    1
   16      2     17    1
   17      3     18    1
   18      3     19    1
   19      3     20    1
   20      5     21    1
   21      6     22    1
   22      6     23    1
   23      6     24    1
   24      7     25    1
   25      7     26    1
   26      7     27    1
   27     11     28    1
   28     11     29    1
   29     11     30    1
   30     12     31    1
   31     12     32    1
   32     12     33    1
   33     13     34    1
   34     13     35    1
   35     13     36    1
#
#	File Created by: Spartan'20 Export
#

@<TRIPOS>MOLECULE
M0134
19 18
SMALL
USER_CHARGES


@<TRIPOS>ATOM
    1   C1        -1.169620381     1.176251991     0.188196240     C.3   1  noname   -0.698313
    2   C2        -0.634826649    -0.082902828    -0.504044107     C.3   1  noname    0.744663
    3   C3        -1.498403088    -1.297271339    -0.173976277     C.3   1  noname   -0.851145
    4   N4         0.785389706    -0.379798944    -0.254389444     N.3   1  noname   -0.353635
    5   C5         1.677291666     0.561744571    -0.914996407     C.3   1  noname   -0.558896
    6   C6         1.136783283    -0.497704327     1.154414681     C.3   1  noname   -0.391775
    7   H7        -2.190254729     1.385341874    -0.147429586       H   1  noname    0.151019
    8   H8        -1.197824337     1.046420946     1.274206008       H   1  noname    0.177458
    9   H9        -0.558115109     2.054993274    -0.035884474       H   1  noname    0.169130
   10   H10       -0.700802954     0.075659017    -1.588683160       H   1  noname   -0.007573
   11   H11       -1.081537053    -2.191081260    -0.644241395       H   1  noname    0.189900
   12   H12       -2.518183993    -1.146040491    -0.541529348       H   1  noname    0.192277
   13   H13       -1.561570878    -1.468019300     0.904726894       H   1  noname    0.224735
   14   H14        1.423778493     0.619907773    -1.977553459       H   1  noname    0.170925
   15   H15        2.705196248     0.195631834    -0.829222945       H   1  noname    0.210880
   16   H16        1.648578001     1.582151422    -0.493533107       H   1  noname    0.173037
   17   H17        0.480915717    -1.215492393     1.651032952       H   1  noname    0.146735
   18   H18        2.160836545    -0.876597035     1.226315063       H   1  noname    0.171987
   19   H19        1.092369512     0.456805214     1.706591873       H   1  noname    0.138591


@<TRIPOS>BOND
    1      1      2    1
    2      2      3    1
    3      2      4    1
    4      4      5    1
    5      4      6    1
    6      1      7    1
    7      1      8    1
    8      1      9    1
    9      2     10    1
   10      3     11    1
   11      3     12    1
   12      3     13    1
   13      5     14    1
   14      5     15    1
   15      5     16    1
   16      6     17    1
   17      6     18    1
   18      6     19    1
#
#	File Created by: Spartan'20 Export
#

@<TRIPOS>MOLECULE
M0135
22 21
SMALL
USER_CHARGES


@<TRIPOS>ATOM
    1   C1         2.316856463    -0.349061522    -1.216417276     C.3   1  noname   -0.815701
    2   C2         1.622650928    -0.987810658    -0.013969566     C.3   1  noname    0.817979
    3   C3         2.138068945    -0.429362917     1.312402196     C.3   1  noname   -0.716934
    4   N4         0.156807601    -0.903182203    -0.112009504     N.2   1  noname   -0.766813
    5   C5        -0.357859651     0.276573565    -0.113103237     C.2   1  noname    0.522288
    6   N6        -1.703973965     0.491159271    -0.306049797   N.pl3   1  noname   -0.189767
    7   C7        -2.284669369     1.703984378     0.240594828     C.3   1  noname   -0.500193
    8   C8        -2.565071054    -0.678585022    -0.307991042     C.3   1  noname   -0.460960
    9   H9         1.908074141    -0.753494769    -2.146387745       H   1  noname    0.192658
   10   H10        3.393674362    -0.545785207    -1.193673903       H   1  noname    0.186166
   11   H11        2.171908945     0.735966203    -1.222573787       H   1  noname    0.172612
   12   H12        1.849353083    -2.060536768    -0.031206580       H   1  noname   -0.039306
   13   H13        1.989834986     0.653871923     1.368596040       H   1  noname    0.159978
   14   H14        3.208608922    -0.628104128     1.428070753       H   1  noname    0.156210
   15   H15        1.605397355    -0.892273378     2.147596582       H   1  noname    0.168533
   16   H16        0.210192179     1.212011891    -0.011361245       H   1  noname    0.057959
   17   H17       -3.179503829     1.968453350    -0.330079616       H   1  noname    0.192611
   18   H18       -1.566679638     2.522737845     0.151759922       H   1  noname    0.153320
   19   H19       -2.566788702     1.596901684     1.298954012       H   1  noname    0.180127
   20   H20       -2.098608091    -1.452530604    -0.915086507       H   1  noname    0.176857
   21   H21       -2.714929686    -1.080585304     0.703977337       H   1  noname    0.171696
   22   H22       -3.533343926    -0.400347631    -0.732041864       H   1  noname    0.180678


@<TRIPOS>BOND
    1      1      2    1
    2      2      3    1
    3      2      4    1
    4      4      5    2
    5      5      6    1
    6      6      7    1
    7      6      8    1
    8      1      9    1
    9      1     10    1
   10      1     11    1
   11      2     12    1
   12      3     13    1
   13      3     14    1
   14      3     15    1
   15      5     16    1
   16      7     17    1
   17      7     18    1
   18      7     19    1
   19      8     20    1
   20      8     21    1
   21      8     22    1
#
#	File Created by: Spartan'20 Export
#

@<TRIPOS>MOLECULE
M0136
16 15
SMALL
USER_CHARGES


@<TRIPOS>ATOM
    1   C1        -0.744834980     1.277359727    -0.021993386     C.3   1  noname   -0.747041
    2   C2        -0.318116124    -0.129940140     0.405459597     C.3   1  noname    0.798766
    3   C3        -1.497146324    -1.094708708     0.357662431     C.3   1  noname   -0.929383
    4   N4         0.775237612    -0.704042182    -0.384815455     N.3   1  noname   -0.775793
    5   C5         2.039944176     0.018243305    -0.289070573     C.3   1  noname   -0.272827
    6   H6        -1.551976158     1.652210519     0.615778027       H   1  noname    0.165593
    7   H7         0.082412568     1.989994843     0.033547322       H   1  noname    0.173614
    8   H8        -1.112206272     1.259452382    -1.055017946       H   1  noname    0.182691
    9   H9         0.050323611    -0.083073493     1.439771812       H   1  noname    0.002005
   10   H10       -1.881651890    -1.172545286    -0.666132261       H   1  noname    0.219197
   11   H11       -2.315941249    -0.750688350     0.997034116       H   1  noname    0.220530
   12   H12       -1.183015263    -2.089438358     0.681659354       H   1  noname    0.214944
   13   H13        0.481760736    -0.738499481    -1.362342952       H   1  noname    0.379814
   14   H14        2.015176285     1.064659566    -0.630219453       H   1  noname    0.098008
   15   H15        2.365722061     0.013125384     0.755363378       H   1  noname    0.129547
   16   H16        2.794311210    -0.512109727    -0.876684010       H   1  noname    0.140335


@<TRIPOS>BOND
    1      1      2    1
    2      2      3    1
    3      2      4    1
    4      4      5    1
    5      1      6    1
    6      1      7    1
    7      1      8    1
    8      2      9    1
    9      3     10    1
   10      3     11    1
   11      3     12    1
   12      4     13    1
   13      5     14    1
   14      5     15    1
   15      5     16    1
#
#	File Created by: Spartan'20 Export
#

@<TRIPOS>MOLECULE
M0137
22 21
SMALL
USER_CHARGES


@<TRIPOS>ATOM
    1   C1         1.549929614    -1.372709643     0.269301700     C.3   1  noname   -0.827346
    2   C2         1.198383080     0.114986066     0.349327363     C.3   1  noname    0.782445
    3   C3         2.374385728     0.978517711    -0.093339689     C.3   1  noname   -0.779561
    4   N4         0.030669950     0.513507314    -0.448311477     N.3   1  noname   -0.926551
    5   C5        -1.230469793    -0.192279701    -0.190488723     C.3   1  noname    0.724919
    6   C6        -2.250332341     0.301119946    -1.210451616     C.3   1  noname   -0.803531
    7   C7        -1.708717849     0.090993681     1.228603778     C.3   1  noname   -0.753121
    8   H8         2.439313693    -1.596234848     0.866627117       H   1  noname    0.190603
    9   H9         0.736385643    -2.004702408     0.633589804       H   1  noname    0.182293
   10   H10        1.760447178    -1.653605319    -0.768770025       H   1  noname    0.189014
   11   H11        0.973776382     0.364705271     1.393119319       H   1  noname   -0.002599
   12   H12        2.641254569     0.754498305    -1.133246117       H   1  noname    0.191417
   13   H13        3.256860828     0.790924588     0.526045054       H   1  noname    0.179410
   14   H14        2.110324254     2.036664079    -0.027063519       H   1  noname    0.184684
   15   H15        0.272419809     0.377840705    -1.434059260       H   1  noname    0.364660
   16   H16       -1.133560704    -1.286324070    -0.309370125       H   1  noname   -0.031991
   17   H17       -2.383879323     1.381465956    -1.105038410       H   1  noname    0.218781
   18   H18       -3.216177984    -0.193336898    -1.067290888       H   1  noname    0.190797
   19   H19       -1.915687099     0.094693059    -2.233378062       H   1  noname    0.175520
   20   H20       -1.760351586     1.172782912     1.385570681       H   1  noname    0.203678
   21   H21       -2.703508919    -0.337472298     1.386286757       H   1  noname    0.176623
   22   H22       -1.041465129    -0.336034407     1.982336338       H   1  noname    0.169856


@<TRIPOS>BOND
    1      1      2    1
    2      2      3    1
    3      2      4    1
    4      4      5    1
    5      5      6    1
    6      5      7    1
    7      1      8    1
    8      1      9    1
    9      1     10    1
   10      2     11    1
   11      3     12    1
   12      3     13    1
   13      3     14    1
   14      4     15    1
   15      5     16    1
   16      6     17    1
   17      6     18    1
   18      6     19    1
   19      7     20    1
   20      7     21    1
   21      7     22    1
#
#	File Created by: Spartan'20 Export
#

@<TRIPOS>MOLECULE
M0138
17 16
SMALL
USER_CHARGES


@<TRIPOS>ATOM
    1   C1         1.303987528     1.095007305     0.790275241     C.3   1  noname   -0.743761
    2   C2         0.883604029    -0.260449336     0.253276811     C.3   1  noname    0.752301
    3   C3         1.836043828    -0.821902844    -0.782499313     C.3   1  noname   -0.811917
    4   O4        -0.397549294    -0.129724833    -0.429670760     O.3   1  noname   -0.540850
    5   C5        -1.498883439    -0.145380259     0.364979343     C.2   1  noname    0.928409
    6   O6        -1.467867198    -0.260915206     1.579767382     O.2   1  noname   -0.619222
    7   C7        -2.745077448    -0.006055349    -0.468217517     C.3   1  noname   -0.784676
    8   H8         1.378527754     1.814357545    -0.030988533       H   1  noname    0.191857
    9   H9         2.280693072     1.020543876     1.278369132       H   1  noname    0.178051
   10   H10        0.578641969     1.456405704     1.521320316       H   1  noname    0.191607
   11   H11        0.748571346    -0.963243747     1.079975002       H   1  noname   -0.009278
   12   H12        1.474656427    -1.782084555    -1.157296982       H   1  noname    0.193238
   13   H13        2.825497378    -0.968437767    -0.340376991       H   1  noname    0.196677
   14   H14        1.928900248    -0.131193907    -1.624540761       H   1  noname    0.219694
   15   H15       -2.710678623     0.929002367    -1.031144271       H   1  noname    0.225075
   16   H16       -2.802485032    -0.826094430    -1.188290940       H   1  noname    0.218075
   17   H17       -3.616582544    -0.019834564     0.185062842       H   1  noname    0.214719


@<TRIPOS>BOND
    1      1      2    1
    2      2      3    1
    3      2      4    1
    4      4      5    1
    5      5      6    2
    6      5      7    1
    7      1      8    1
    8      1      9    1
    9      1     10    1
   10      2     11    1
   11      3     12    1
   12      3     13    1
   13      3     14    1
   14      7     15    1
   15      7     16    1
   16      7     17    1
#
#	File Created by: Spartan'20 Export
#

@<TRIPOS>MOLECULE
M0139
21 20
SMALL
USER_CHARGES


@<TRIPOS>ATOM
    1   C1         0.912479679    -2.176065107    -0.681786341     C.3   1  noname   -0.783120
    2   C2         0.126292219    -1.198686888     0.172574918     C.3   1  noname    0.803870
    3   C3        -1.252564483    -1.729421631     0.540499682     C.3   1  noname   -0.831814
    4   O4        -0.000020427     0.000001540    -0.604062443     O.3   1  noname   -0.594226
    5   C5        -0.126302946     1.198690316     0.172579204     C.3   1  noname    0.803864
    6   C6         1.252565396     1.729399961     0.540496127     C.3   1  noname   -0.831808
    7   C7        -0.912474707     2.176085774    -0.681775614     C.3   1  noname   -0.783118
    8   H8         1.896053680    -1.763783575    -0.919156924       H   1  noname    0.183189
    9   H9         0.377201543    -2.353246754    -1.618808465       H   1  noname    0.210533
   10   H10        1.041718372    -3.131981506    -0.165054647       H   1  noname    0.179972
   11   H11        0.693776879    -0.983470705     1.090772256       H   1  noname   -0.052597
   12   H12       -1.174004080    -2.647043322     1.132460689       H   1  noname    0.191830
   13   H13       -1.815794468    -0.995543351     1.124064866       H   1  noname    0.179982
   14   H14       -1.812536366    -1.945625634    -0.373561197       H   1  noname    0.215269
   15   H15       -0.693789077     0.983482666     1.090777584       H   1  noname   -0.052597
   16   H16        1.815758131     0.995546636     1.124119805       H   1  noname    0.179977
   17   H17        1.812562990     1.945521319    -0.373553451       H   1  noname    0.215270
   18   H18        1.174026803     2.647051191     1.132395009       H   1  noname    0.191831
   19   H19       -1.041684621     3.132003794    -0.165040241       H   1  noname    0.179971
   20   H20       -0.377201306     2.353254765    -1.618803255       H   1  noname    0.210534
   21   H21       -1.896063211     1.763830510    -0.919137562       H   1  noname    0.183189


@<TRIPOS>BOND
    1      1      2    1
    2      2      3    1
    3      2      4    1
    4      4      5    1
    5      5      6    1
    6      5      7    1
    7      1      8    1
    8      1      9    1
    9      1     10    1
   10      2     11    1
   11      3     12    1
   12      3     13    1
   13      3     14    1
   14      5     15    1
   15      6     16    1
   16      6     17    1
   17      6     18    1
   18      7     19    1
   19      7     20    1
   20      7     21    1
#
#	File Created by: Spartan'20 Export
#

@<TRIPOS>MOLECULE
M0140
20 20
SMALL
USER_CHARGES


@<TRIPOS>ATOM
    1   C1         0.217311713    -1.260860867    -1.930501001     C.3   1  noname   -0.630446
    2   C2        -0.388050678     0.000437370    -1.310885620     C.3   1  noname    0.171046
    3   C3         0.218541706     1.260844947    -1.931038097     C.3   1  noname   -0.632109
    4   C4        -0.182432360     0.000430992     0.184816658     C.2   1  noname    0.807186
    5   C5        -1.254921039    -0.000506184     1.084048115     C.2   1  noname   -0.732726
    6   C6        -1.000183655    -0.000845009     2.454792183     C.2   1  noname    0.294270
    7   C7         0.324438931    -0.000158248     2.886795124     C.2   1  noname   -0.546963
    8   C8         1.334282607     0.000831096     1.923208390     C.2   1  noname    0.388108
    9   N9         1.102668898     0.001081796     0.600179897     N.2   1  noname   -0.700535
   10   H10       -0.238357568    -2.163234642    -1.510556213       H   1  noname    0.134570
   11   H11        1.291023425    -1.291165605    -1.726128799       H   1  noname    0.177958
   12   H12        0.063621995    -1.270362509    -3.014919241       H   1  noname    0.176986
   13   H13       -1.470231571     0.000904984    -1.499331351       H   1  noname    0.036039
   14   H14       -0.236219852     2.163880814    -1.511538608       H   1  noname    0.134964
   15   H15        0.064794685     1.269943514    -3.015450467       H   1  noname    0.177430
   16   H16        1.292273733     1.290221087    -1.726722248       H   1  noname    0.178289
   17   H17       -2.275841857    -0.000935099     0.709986086       H   1  noname    0.209440
   18   H18       -1.819118027    -0.001594201     3.170020375       H   1  noname    0.092870
   19   H19        0.574107854    -0.000364417     3.943974375       H   1  noname    0.194719
   20   H20        2.382291063     0.001450181     2.219250443       H   1  noname    0.068904


@<TRIPOS>BOND
    1      1      2    1
    2      2      3    1
    3      2      4    1
    4      4      5    2
    5      5      6    1
    6      6      7    2
    7      7      8    1
    8      8      9    2
    9      9      4    1
   10      1     10    1
   11      1     11    1
   12      1     12    1
   13      2     13    1
   14      3     14    1
   15      3     15    1
   16      3     16    1
   17      5     17    1
   18      6     18    1
   19      7     19    1
   20      8     20    1
#
#	File Created by: Spartan'20 Export
#

@<TRIPOS>MOLECULE
M0141
29 29
SMALL
USER_CHARGES


@<TRIPOS>ATOM
    1   C1        -2.609041403     1.330236830    -0.557121810     C.3   1  noname   -0.804009
    2   C2        -1.611432270     0.221684194    -0.220486289     C.3   1  noname    1.022560
    3   C3        -0.199935486     0.823463724    -0.165598443     C.3   1  noname   -0.555757
    4   C4         0.912842254    -0.201201264    -0.138975459     C.2   1  noname    0.502578
    5   C5         0.678911261    -1.495096475    -0.523974724     C.2   1  noname   -0.842062
    6   C6        -0.598880652    -1.932801888    -1.063307093     C.2   1  noname    0.905211
    7   O7        -0.817199650    -3.116665884    -1.354167429     O.2   1  noname   -0.625930
    8   C8        -1.642529721    -0.858380442    -1.301781594     C.3   1  noname   -0.822690
    9   N9         2.166959596     0.251168569     0.208334845   N.pl3   1  noname   -0.057033
   10   C10        3.238306726    -0.725920447     0.311645521     C.3   1  noname   -0.555453
   11   C11        2.338732723     1.466641064     0.995113903     C.3   1  noname   -0.460314
   12   C12       -1.980063317    -0.384962393     1.137393221     C.3   1  noname   -0.732897
   13   H13       -3.629484511     0.932986329    -0.582270928       H   1  noname    0.191721
   14   H14       -2.391479915     1.771470452    -1.535910419       H   1  noname    0.173712
   15   H15       -2.575058657     2.128364083     0.193813617       H   1  noname    0.166753
   16   H16       -0.147834081     1.463993568     0.722511895       H   1  noname    0.150760
   17   H17       -0.046877293     1.485400868    -1.032368184       H   1  noname    0.136207
   18   H18        1.437117804    -2.267262420    -0.458272235       H   1  noname    0.254777
   19   H19       -2.624097760    -1.341819940    -1.362496428       H   1  noname    0.193243
   20   H20       -1.441153434    -0.400470493    -2.282202734       H   1  noname    0.192415
   21   H21        4.177928893    -0.199980390     0.490429267       H   1  noname    0.203399
   22   H22        3.325141029    -1.278106359    -0.627393673       H   1  noname    0.184858
   23   H23        3.071170904    -1.446008018     1.124922024       H   1  noname    0.189300
   24   H24        2.020967080     1.349306416     2.040655039       H   1  noname    0.162869
   25   H25        1.791500598     2.296788735     0.549822400       H   1  noname    0.150294
   26   H26        3.397574727     1.730780375     0.986926640       H   1  noname    0.183522
   27   H27       -1.994245569     0.390941134     1.911609772       H   1  noname    0.146414
   28   H28       -2.977535826    -0.835231630     1.092852708       H   1  noname    0.168004
   29   H29       -1.270304049    -1.159318296     1.440296589       H   1  noname    0.177547


@<TRIPOS>BOND
    1      1      2    1
    2      2      3    1
    3      3      4    1
    4      4      5    2
    5      5      6    1
    6      6      7    2
    7      6      8    1
    8      4      9    1
    9      9     10    1
   10      9     11    1
   11      2     12    1
   12      8      2    1
   13      1     13    1
   14      1     14    1
   15      1     15    1
   16      3     16    1
   17      3     17    1
   18      5     18    1
   19      8     19    1
   20      8     20    1
   21     10     21    1
   22     10     22    1
   23     10     23    1
   24     11     24    1
   25     11     25    1
   26     11     26    1
   27     12     27    1
   28     12     28    1
   29     12     29    1
#
#	File Created by: Spartan'20 Export
#

@<TRIPOS>MOLECULE
M0142
25 25
SMALL
USER_CHARGES


@<TRIPOS>ATOM
    1   C1         2.117943777     1.082029245     0.682008040     C.3   1  noname   -0.852300
    2   C2         1.196718086     0.005324498     0.130918506     C.3   1  noname    1.012363
    3   C3         0.701166003     0.300629578    -1.290241029     C.3   1  noname   -0.336173
    4   C4        -0.701377072    -0.301164061    -1.290189837     C.3   1  noname   -0.336873
    5   C5        -1.196771979    -0.005724317     0.130950087     C.3   1  noname    1.013166
    6   O6        -0.000036075    -0.001029273     0.947591062     O.3   1  noname   -0.692315
    7   C7        -2.119006295    -1.081670706     0.681797520     C.3   1  noname   -0.852608
    8   C8        -1.841195281     1.373391299     0.236329414     C.3   1  noname   -0.766284
    9   C9         1.842402298    -1.373205617     0.235992822     C.3   1  noname   -0.765638
   10   H10        2.378441494     0.859495967     1.720780647       H   1  noname    0.218545
   11   H11        3.040900663     1.141880232     0.095362968       H   1  noname    0.175451
   12   H12        1.614880080     2.052313726     0.652176025       H   1  noname    0.187048
   13   H13        1.359276569    -0.125088457    -2.054799281       H   1  noname    0.096266
   14   H14        0.656328357     1.382832165    -1.455769897       H   1  noname    0.090153
   15   H15       -0.656532975    -1.383408328    -1.455464716       H   1  noname    0.090272
   16   H16       -1.359513331     0.124419723    -2.054804607       H   1  noname    0.096353
   17   H17       -2.379352540    -0.859081346     1.720575096       H   1  noname    0.218612
   18   H18       -3.041960039    -1.140561546     0.095114053       H   1  noname    0.175531
   19   H19       -1.616826749    -2.052379346     0.651837873       H   1  noname    0.187099
   20   H20       -2.018815610     1.611382251     1.288790092       H   1  noname    0.187970
   21   H21       -2.796930430     1.403528342    -0.298192178       H   1  noname    0.161957
   22   H22       -1.183748459     2.141992277    -0.180065590       H   1  noname    0.170911
   23   H23        1.185571498    -2.142234775    -0.180387809       H   1  noname    0.170778
   24   H24        2.020406185    -1.611249980     1.288327674       H   1  noname    0.187883
   25   H25        2.798031826    -1.402421552    -0.298636937       H   1  noname    0.161831


@<TRIPOS>BOND
    1      1      2    1
    2      2      3    1
    3      3      4    1
    4      4      5    1
    5      5      6    1
    6      5      7    1
    7      5      8    1
    8      2      9    1
    9      6      2    1
   10      1     10    1
   11      1     11    1
   12      1     12    1
   13      3     13    1
   14      3     14    1
   15      4     15    1
   16      4     16    1
   17      7     17    1
   18      7     18    1
   19      7     19    1
   20      8     20    1
   21      8     21    1
   22      8     22    1
   23      9     23    1
   24      9     24    1
   25      9     25    1
#
#	File Created by: Spartan'20 Export
#

@<TRIPOS>MOLECULE
M0143
29 29
SMALL
USER_CHARGES


@<TRIPOS>ATOM
    1   C1         0.941888186     1.658709724    -1.262535590     C.3   1  noname   -0.874928
    2   C2         0.290235601     1.278300273     0.075752551     C.3   1  noname    1.299425
    3   C3        -1.223795775     1.148799075    -0.079124290     C.3   1  noname   -0.548332
    4   C4        -1.649062970     0.001263767    -1.011527708     C.3   1  noname    0.006953
    5   C5        -0.641203109    -1.161719790    -1.027200920     C.3   1  noname   -0.551408
    6   C6         0.161908921    -1.268418913     0.273746954     C.3   1  noname    1.262896
    7   N7         0.817898926     0.012431622     0.628958414     N.3   1  noname   -1.171060
    8   C8        -0.748560353    -1.697741692     1.431021890     C.3   1  noname   -0.810001
    9   C9         1.260625095    -2.317276275     0.114046382     C.3   1  noname   -0.820177
   10   C10        0.610705607     2.370794645     1.097292727     C.3   1  noname   -0.846680
   11   H11        2.029161494     1.731392157    -1.139655829       H   1  noname    0.167997
   12   H12        0.581892090     2.635299908    -1.605610459       H   1  noname    0.180522
   13   H13        0.739474625     0.927401506    -2.047347121       H   1  noname    0.199812
   14   H14       -1.646387124     1.002407828     0.920526124       H   1  noname    0.126104
   15   H15       -1.624047782     2.102661071    -0.443306222       H   1  noname    0.106941
   16   H16       -2.635347965    -0.359959647    -0.699757285       H   1  noname    0.062551
   17   H17       -1.777302174     0.376165607    -2.033149208       H   1  noname    0.064120
   18   H18       -1.158701249    -2.111922486    -1.211903071       H   1  noname    0.109645
   19   H19        0.067492537    -1.038017680    -1.854084774       H   1  noname    0.105027
   20   H20        1.810820134    -0.043351689     0.400021860       H   1  noname    0.357277
   21   H21       -0.160051464    -1.755839391     2.350680363       H   1  noname    0.173590
   22   H22       -1.193285769    -2.679455234     1.230107706       H   1  noname    0.153535
   23   H23       -1.558861488    -0.985328566     1.597887342       H   1  noname    0.196292
   24   H24        1.915403077    -2.065396700    -0.728001376       H   1  noname    0.152361
   25   H25        0.831652102    -3.307144713    -0.070396217       H   1  noname    0.171876
   26   H26        1.867129285    -2.369674332     1.024810178       H   1  noname    0.192824
   27   H27        0.243489103     3.348043398     0.763065230       H   1  noname    0.163614
   28   H28        0.153189496     2.122850765     2.058415825       H   1  noname    0.179344
   29   H29        1.693640943     2.444725761     1.247266523       H   1  noname    0.189880


@<TRIPOS>BOND
    1      1      2    1
    2      2      3    1
    3      3      4    1
    4      4      5    1
    5      5      6    1
    6      6      7    1
    7      6      8    1
    8      6      9    1
    9      2     10    1
   10      7      2    1
   11      1     11    1
   12      1     12    1
   13      1     13    1
   14      3     14    1
   15      3     15    1
   16      4     16    1
   17      4     17    1
   18      5     18    1
   19      5     19    1
   20      7     20    1
   21      8     21    1
   22      8     22    1
   23      8     23    1
   24      9     24    1
   25      9     25    1
   26      9     26    1
   27     10     27    1
   28     10     28    1
   29     10     29    1
#
#	File Created by: Spartan'20 Export
#

@<TRIPOS>MOLECULE
M0144
32 32
SMALL
USER_CHARGES


@<TRIPOS>ATOM
    1   C1         0.679396313    -1.535495153    -1.502386295     C.3   1  noname   -0.935365
    2   C2        -0.051349476    -1.268639300    -0.174601188     C.3   1  noname    1.323668
    3   C3         0.945033798    -1.245806351     0.998254188     C.3   1  noname   -0.427849
    4   C4         1.824705060     0.000017609     1.006900542     C.3   1  noname   -0.065787
    5   C5         0.945008951     1.245823555     0.998250786     C.3   1  noname   -0.427846
    6   C6        -0.051371263     1.268640765    -0.174606560     C.3   1  noname    1.323632
    7   N7        -0.854489518    -0.000003883    -0.257878638     N.3   1  noname   -0.890333
    8   C8        -1.986248305    -0.000018247     0.678022239     C.3   1  noname   -0.502970
    9   C9         0.679345053     1.535478582    -1.502400377     C.3   1  noname   -0.935295
   10   C10       -0.981482739     2.475669635     0.017103672     C.3   1  noname   -0.851402
   11   C11       -0.981464864    -2.475662629     0.017125448     C.3   1  noname   -0.851428
   12   H12        0.994502601    -2.583309864    -1.537021607       H   1  noname    0.185105
   13   H13        1.574991853    -0.934928108    -1.642482457       H   1  noname    0.205475
   14   H14       -0.000570818    -1.347909941    -2.337356212       H   1  noname    0.199809
   15   H15        0.379711993    -1.282141191     1.940212895       H   1  noname    0.099613
   16   H16        1.556926365    -2.157495308     0.966663651       H   1  noname    0.071239
   17   H17        2.502880624     0.000027541     0.145846321       H   1  noname    0.035247
   18   H18        2.465062096     0.000023976     1.897677017       H   1  noname    0.072626
   19   H19        1.556883804     2.157524221     0.966673182       H   1  noname    0.071234
   20   H20        0.379673655     1.282142287     1.940201869       H   1  noname    0.099615
   21   H21       -2.615919406     0.866464578     0.489646992       H   1  noname    0.195960
   22   H22       -1.714825946    -0.000126892     1.748346513       H   1  noname    0.126876
   23   H23       -2.616011602    -0.866400574     0.489489086       H   1  noname    0.195954
   24   H24       -0.000766839     1.348283583    -2.337337044       H   1  noname    0.199785
   25   H25        1.574697175     0.934623120    -1.642700455       H   1  noname    0.205484
   26   H26        0.994802391     2.583189180    -1.536874840       H   1  noname    0.185078
   27   H27       -0.386455451     3.389411302    -0.068372094       H   1  noname    0.162111
   28   H28       -1.754474547     2.499586021    -0.757982845       H   1  noname    0.212116
   29   H29       -1.458657091     2.492969032     0.998928438       H   1  noname    0.171699
   30   H30       -1.458721845    -2.492887404     0.998909910       H   1  noname    0.171713
   31   H31       -1.754391610    -2.499646232    -0.758024262       H   1  noname    0.212123
   32   H32       -0.386420415    -3.389403909    -0.068227873       H   1  noname    0.162108


@<TRIPOS>BOND
    1      1      2    1
    2      2      3    1
    3      3      4    1
    4      4      5    1
    5      5      6    1
    6      6      7    1
    7      7      8    1
    8      6      9    1
    9      6     10    1
   10      2     11    1
   11      7      2    1
   12      1     12    1
   13      1     13    1
   14      1     14    1
   15      3     15    1
   16      3     16    1
   17      4     17    1
   18      4     18    1
   19      5     19    1
   20      5     20    1
   21      8     21    1
   22      8     22    1
   23      8     23    1
   24      9     24    1
   25      9     25    1
   26      9     26    1
   27     10     27    1
   28     10     28    1
   29     10     29    1
   30     11     30    1
   31     11     31    1
   32     11     32    1
#
#	File Created by: Spartan'20 Export
#

@<TRIPOS>MOLECULE
M0145
12 12
SMALL
USER_CHARGES


@<TRIPOS>ATOM
    1   C1         1.471401201     0.470865776    -0.222025080     C.3   1  noname   -0.702935
    2   C2         0.293730951    -0.096484762     0.527447143     C.3   1  noname    0.708646
    3   C3        -0.779082139    -0.840887671    -0.274559061     C.3   1  noname   -0.776887
    4   C4        -1.673268688     0.318205768     0.142062290     C.2   1  noname    0.866771
    5   O5        -2.815526272     0.662267746    -0.015514248     O.2   1  noname   -0.552705
    6   O6        -0.685474055     0.964816213     0.861414239     O.3   1  noname   -0.551325
    7   H7         2.007501464     1.193262752     0.398316947       H   1  noname    0.189873
    8   H8         2.162534205    -0.330055697    -0.502572682       H   1  noname    0.166717
    9   H9         1.129011755     0.976642826    -1.128848119       H   1  noname    0.199065
   10   H10        0.593626697    -0.597025371     1.452358642       H   1  noname   -0.010251
   11   H11       -0.607220743    -0.910731524    -1.351599227       H   1  noname    0.240705
   12   H12       -1.097234376    -1.810876057     0.113519154       H   1  noname    0.222326


@<TRIPOS>BOND
    1      1      2    1
    2      2      3    1
    3      3      4    1
    4      4      5    2
    5      4      6    1
    6      6      2    1
    7      1      7    1
    8      1      8    1
    9      1      9    1
   10      2     10    1
   11      3     11    1
   12      3     12    1
#
#	File Created by: Spartan'20 Export
#

@<TRIPOS>MOLECULE
M0146
15 15
SMALL
USER_CHARGES


@<TRIPOS>ATOM
    1   C1        -2.007563023    -0.216994565    -0.155615838     C.3   1  noname   -0.754245
    2   C2        -0.524635101    -0.491051992    -0.244830340     C.3   1  noname    0.560025
    3   C3         0.348293483     0.695861778    -0.652395840     C.3   1  noname   -0.197381
    4   C4         1.672731346     0.357358504     0.018600799     C.3   1  noname   -0.433343
    5   C5         1.238130338    -0.406714623     1.259107828     C.2   1  noname    0.803914
    6   O6         1.867658106    -0.627024522     2.269960017     O.2   1  noname   -0.574187
    7   O7        -0.046579520    -0.852823601     1.079418049     O.3   1  noname   -0.504625
    8   H8        -2.190074210     0.604948441     0.541301230       H   1  noname    0.206835
    9   H9        -2.397228134     0.059108609    -1.140296085       H   1  noname    0.169130
   10   H10       -2.543555916    -1.100802526     0.197520458       H   1  noname    0.215587
   11   H11       -0.330678474    -1.347876583    -0.904663777       H   1  noname    0.001509
   12   H12        0.408507233     0.811383263    -1.737835559       H   1  noname    0.085161
   13   H13       -0.070042903     1.616430507    -0.230668904       H   1  noname    0.109982
   14   H14        2.292001914     1.211341166     0.298760659       H   1  noname    0.164864
   15   H15        2.283034861    -0.313143855    -0.598362697       H   1  noname    0.146773


@<TRIPOS>BOND
    1      1      2    1
    2      2      3    1
    3      3      4    1
    4      4      5    1
    5      5      6    2
    6      5      7    1
    7      7      2    1
    8      1      8    1
    9      1      9    1
   10      1     10    1
   11      2     11    1
   12      3     12    1
   13      3     13    1
   14      4     14    1
   15      4     15    1
#
#	File Created by: Spartan'20 Export
#

@<TRIPOS>MOLECULE
M0147
16 16
SMALL
USER_CHARGES


@<TRIPOS>ATOM
    1   C1         2.019270769     0.599548975    -0.229371664     C.3   1  noname   -0.833017
    2   C2         0.658396975     0.317749331     0.369693683     C.3   1  noname    0.642376
    3   C3         0.053918117    -1.040779946     0.040268135     C.3   1  noname   -0.268739
    4   C4        -1.432472112    -0.769556843     0.258747896     C.3   1  noname   -0.275701
    5   C5        -1.574036488     0.659154453    -0.275776634     C.3   1  noname    0.067122
    6   O6        -0.274754703     1.268166087    -0.172755650     O.3   1  noname   -0.509368
    7   H7         2.325748652     1.624729351    -0.008855531       H   1  noname    0.217160
    8   H8         2.769551580    -0.084211437     0.179111489       H   1  noname    0.180834
    9   H9         1.976926642     0.476439843    -1.314515154       H   1  noname    0.215739
   10   H10        0.701407289     0.439592213     1.465484757       H   1  noname   -0.016685
   11   H11        0.451498732    -1.846874438     0.664188719       H   1  noname    0.081939
   12   H12        0.253225853    -1.283250452    -1.010293703       H   1  noname    0.121283
   13   H13       -2.089973293    -1.477615308    -0.253409525       H   1  noname    0.111091
   14   H14       -1.666156315    -0.805030463     1.327708265       H   1  noname    0.106980
   15   H15       -1.874077336     0.666647279    -1.330877977       H   1  noname    0.087704
   16   H16       -2.298474362     1.255291354     0.290652892       H   1  noname    0.071281


@<TRIPOS>BOND
    1      1      2    1
    2      2      3    1
    3      3      4    1
    4      4      5    1
    5      5      6    1
    6      6      2    1
    7      1      7    1
    8      1      8    1
    9      1      9    1
   10      2     10    1
   11      3     11    1
   12      3     12    1
   13      4     13    1
   14      4     14    1
   15      5     15    1
   16      5     16    1
#
#	File Created by: Spartan'20 Export
#

@<TRIPOS>MOLECULE
M0148
11 11
SMALL
USER_CHARGES


@<TRIPOS>ATOM
    1   C1         1.288191267     0.126850363    -0.213823380     C.3   1  noname   -0.688662
    2   C2        -0.082612426     0.516981459     0.272884609     C.3   1  noname    0.274309
    3   C3        -1.291038867    -0.100726327    -0.317409272     C.3   1  noname   -0.255095
    4   N4        -0.887797924    -0.428491330     1.067031452     N.3   1  noname   -0.680545
    5   H5         2.023568656     0.184178135     0.594592560       H   1  noname    0.193683
    6   H6         1.619865123     0.785948738    -1.022225321       H   1  noname    0.173815
    7   H7         1.280593261    -0.899330438    -0.596725152       H   1  noname    0.193724
    8   H8        -0.168487689     1.539208825     0.636504927       H   1  noname    0.093204
    9   H9        -2.215217165     0.463039599    -0.399281653       H   1  noname    0.154648
   10   H10       -1.144571575    -0.848452356    -1.093894031       H   1  noname    0.152558
   11   H11       -0.422492662    -1.339206666     1.072345260       H   1  noname    0.388359


@<TRIPOS>BOND
    1      1      2    1
    2      2      3    1
    3      3      4    1
    4      4      2    1
    5      1      5    1
    6      1      6    1
    7      1      7    1
    8      2      8    1
    9      3      9    1
   10      3     10    1
   11      4     11    1
#
#	File Created by: Spartan'20 Export
#

@<TRIPOS>MOLECULE
M0149
10 10
SMALL
USER_CHARGES


@<TRIPOS>ATOM
    1   C1        -1.213317155     0.282454986    -0.145135556     C.3   1  noname   -0.629833
    2   C2         0.121283878    -0.366364942    -0.374597460     C.3   1  noname    0.268651
    3   C3         1.316367180     0.030624299     0.374610978     C.3   1  noname   -0.265966
    4   O4         0.617594034    -1.188178511     0.701933394     O.3   1  noname   -0.353713
    5   H5        -1.255943131     0.700080857     0.863558988       H   1  noname    0.197145
    6   H6        -2.017854196    -0.450825520    -0.248534968       H   1  noname    0.191734
    7   H7        -1.384035967     1.085033594    -0.869356804       H   1  noname    0.162615
    8   H8         0.273377993    -0.809972960    -1.359780286       H   1  noname    0.086274
    9   H9         2.304262803    -0.103958429    -0.061417453       H   1  noname    0.157331
   10   H10        1.238264561     0.821106626     1.118719166       H   1  noname    0.185763


@<TRIPOS>BOND
    1      1      2    1
    2      2      3    1
    3      3      4    1
    4      4      2    1
    5      1      5    1
    6      1      6    1
    7      1      7    1
    8      2      8    1
    9      3      9    1
   10      3     10    1
#
#	File Created by: Spartan'20 Export
#

@<TRIPOS>MOLECULE
M0150
13 13
SMALL
USER_CHARGES


@<TRIPOS>ATOM
    1   C1         1.605906754     0.242444432     0.472620374     C.3   1  noname   -0.776714
    2   C2         0.389408066    -0.049261797    -0.371394514     C.3   1  noname    0.517431
    3   C3        -0.647169671    -0.968970829     0.259642479     C.3   1  noname   -0.047038
    4   O4        -1.886709153    -0.466436736    -0.266288314     O.3   1  noname   -0.432582
    5   C5        -1.702695776     0.844372507    -0.615984851     C.2   1  noname    0.868557
    6   O6        -2.581945026     1.600844587    -0.929839526     O.2   1  noname   -0.545093
    7   O7        -0.374537840     1.164150972    -0.555524208     O.3   1  noname   -0.477952
    8   H8         1.300491161     0.649908588     1.439211165       H   1  noname    0.219075
    9   H9         2.179303719    -0.675109717     0.636588503       H   1  noname    0.183023
   10   H10        2.250398723     0.968733210    -0.026561606       H   1  noname    0.230927
   11   H11        0.673341499    -0.414098037    -1.366157002       H   1  noname    0.025842
   12   H12       -0.658795616    -0.880206161     1.352077090       H   1  noname    0.123298
   13   H13       -0.546996840    -2.016371019    -0.028389591       H   1  noname    0.111224


@<TRIPOS>BOND
    1      1      2    1
    2      2      3    1
    3      3      4    1
    4      4      5    1
    5      5      6    2
    6      5      7    1
    7      7      2    1
    8      1      8    1
    9      1      9    1
   10      1     10    1
   11      2     11    1
   12      3     12    1
   13      3     13    1
#
#	File Created by: Spartan'20 Export
#

@<TRIPOS>MOLECULE
M0151
7 6
SMALL
USER_CHARGES


@<TRIPOS>ATOM
    1   C1        -0.271548616     0.000011949    -0.592964416     C.3   1  noname   -0.564308
    2   C2         0.347597223    -0.000003084     0.777191711     C.2   1  noname    0.585589
    3   O3        -0.291065583    -0.000063645     1.821339799     O.2   1  noname   -0.515845
    4   H4         0.058289122     0.881981021    -1.150987276       H   1  noname    0.156971
    5   H5        -1.357744199     0.000032639    -0.503354904       H   1  noname    0.180040
    6   H6         0.058221871    -0.882021832    -1.150936971       H   1  noname    0.156969
    7   H7         1.456250182     0.000062953     0.799712057       H   1  noname    0.000584


@<TRIPOS>BOND
    1      1      2    1
    2      2      3    2
    3      1      4    1
    4      1      5    1
    5      1      6    1
    6      2      7    1
#
#	File Created by: Spartan'20 Export
#

@<TRIPOS>MOLECULE
M0152
13 12
SMALL
USER_CHARGES


@<TRIPOS>ATOM
    1   C1        -0.359950663    -0.000008491    -1.884608285     C.3   1  noname   -0.547155
    2   C2         0.431481575     0.000017220    -0.585128877     C.3   1  noname   -0.103334
    3   C3        -0.451553209     0.000008573     0.649299604     C.2   1  noname    0.812148
    4   O4        -1.677081795     0.000036029     0.566070090     O.2   1  noname   -0.563916
    5   C5         0.253572667    -0.000011528     1.988881859     C.3   1  noname   -0.884365
    6   H6        -1.002970500     0.880191516    -1.944378343       H   1  noname    0.156645
    7   H7        -1.003024053    -0.880170314    -1.944321517       H   1  noname    0.156649
    8   H8         0.313161638    -0.000052878    -2.745896250       H   1  noname    0.151445
    9   H9         1.095435442     0.872932703    -0.525147654       H   1  noname    0.073362
   10   H10        1.095428873    -0.872917620    -0.525138259       H   1  noname    0.073356
   11   H11       -0.486939956    -0.000062626     2.789409792       H   1  noname    0.246722
   12   H12        0.896182601     0.881652998     2.080509891       H   1  noname    0.214222
   13   H13        0.896257379    -0.881615581     2.080447948       H   1  noname    0.214222


@<TRIPOS>BOND
    1      1      2    1
    2      2      3    1
    3      3      4    2
    4      3      5    1
    5      1      6    1
    6      1      7    1
    7      1      8    1
    8      2      9    1
    9      2     10    1
   10      5     11    1
   11      5     12    1
   12      5     13    1
#
#	File Created by: Spartan'20 Export
#

@<TRIPOS>MOLECULE
M0153
16 15
SMALL
USER_CHARGES


@<TRIPOS>ATOM
    1   C1         2.534592010    -0.000075679     0.345586022     C.3   1  noname   -0.411273
    2   C2         1.293227124     0.000129624    -0.534904759     C.3   1  noname   -0.126160
    3   C3        -0.000000156     0.000047859     0.260639954     C.2   1  noname    0.631834
    4   O4        -0.000001452     0.000126112     1.489650271     O.2   1  noname   -0.539372
    5   C5        -1.293226932    -0.000090552    -0.534905354     C.3   1  noname   -0.126160
    6   C6        -2.534592278     0.000018518     0.345585177     C.3   1  noname   -0.411273
    7   H7         2.549602530     0.880037247     0.991344867       H   1  noname    0.127490
    8   H8         2.549557844    -0.880449689     0.990992543       H   1  noname    0.127481
    9   H9         3.440471099     0.000023127    -0.266306662       H   1  noname    0.118305
   10   H10        1.280582511     0.873450499    -1.200757274       H   1  noname    0.058974
   11   H11        1.280514882    -0.872924320    -1.201097932       H   1  noname    0.058952
   12   H12       -1.280565616     0.872962421    -1.201093096       H   1  noname    0.058957
   13   H13       -1.280530518    -0.873412612    -1.200762758       H   1  noname    0.058969
   14   H14       -2.549626935     0.880396620     0.990986768       H   1  noname    0.127482
   15   H15       -3.440471828    -0.000149025    -0.266306808       H   1  noname    0.118305
   16   H16       -2.549532283    -0.880090148     0.991349042       H   1  noname    0.127489


@<TRIPOS>BOND
    1      1      2    1
    2      2      3    1
    3      3      4    2
    4      3      5    1
    5      5      6    1
    6      1      7    1
    7      1      8    1
    8      1      9    1
    9      2     10    1
   10      2     11    1
   11      5     12    1
   12      5     13    1
   13      6     14    1
   14      6     15    1
   15      6     16    1
#
#	File Created by: Spartan'20 Export
#

@<TRIPOS>MOLECULE
M0154
18 17
SMALL
USER_CHARGES


@<TRIPOS>ATOM
    1   C1         2.263239857     0.132546885    -0.267148348     C.3   1  noname   -0.378625
    2   C2         1.361147273    -0.518186378     0.786018366     C.3   1  noname   -0.096315
    3   C3         0.056702882    -0.998925855     0.172709137     C.2   1  noname    0.450480
    4   O4        -0.053684665    -2.173943535    -0.197623660     O.2   1  noname   -0.574783
    5   N5        -0.961687095    -0.089700811     0.010476138    N.am   1  noname    0.116258
    6   C6        -0.892562826     1.329639196     0.298878055     C.3   1  noname   -0.661350
    7   C7        -2.180157423    -0.518361028    -0.656891649     C.3   1  noname   -0.522914
    8   H8         3.235574956     0.389943150     0.161567900       H   1  noname    0.109908
    9   H9         1.821199063     1.044687150    -0.676741422       H   1  noname    0.109288
   10   H10        2.427460042    -0.564736425    -1.092438632       H   1  noname    0.142051
   11   H11        1.839129049    -1.421377929     1.170927057       H   1  noname    0.092559
   12   H12        1.200026011     0.151735885     1.635444503       H   1  noname    0.060605
   13   H13       -1.770036989     1.627020176     0.883168673       H   1  noname    0.198581
   14   H14       -0.001804061     1.573930629     0.873320856       H   1  noname    0.220155
   15   H15       -0.885115696     1.917457105    -0.627740448       H   1  noname    0.202075
   16   H16       -3.050757165    -0.259589237    -0.044495712       H   1  noname    0.161160
   17   H17       -2.128877848    -1.595212781    -0.796507457       H   1  noname    0.200569
   18   H18       -2.279795367    -0.026926199    -1.632923358       H   1  noname    0.170297


@<TRIPOS>BOND
    1      1      2    1
    2      2      3    1
    3      3      4    2
    4      3      5    am
    5      5      6    1
    6      5      7    1
    7      1      8    1
    8      1      9    1
    9      1     10    1
   10      2     11    1
   11      2     12    1
   12      6     13    1
   13      6     14    1
   14      6     15    1
   15      7     16    1
   16      7     17    1
   17      7     18    1
#
#	File Created by: Spartan'20 Export
#

@<TRIPOS>MOLECULE
M0155
44 45
SMALL
USER_CHARGES


@<TRIPOS>ATOM
    1   C1        -1.335214824     4.152091334     0.583197653     C.3   1  noname   -0.662396
    2   C2        -1.488921846     2.652303653     0.362071865     C.3   1  noname    0.000369
    3   C3        -0.126998624     1.968748867     0.249362019     C.2   1  noname    0.814515
    4   O4         0.911095832     2.646702930     0.292993203     O.2   1  noname   -0.633383
    5   N5        -0.089690668     0.603959375     0.111916144    N.am   1  noname   -1.217368
    6   C6         1.223671833    -0.059367552     0.018326713     C.3   1  noname    1.082607
    7   C7         2.021960984     0.342912065    -1.223220444     C.3   1  noname   -0.405394
    8   C8         3.214632849    -0.613082438    -1.406229695     C.3   1  noname   -0.216874
    9   C9         3.816355820    -1.057531777    -0.056951258     C.3   1  noname   -0.191385
   10   C10        3.559479109    -0.003970865     1.018452404     C.3   1  noname   -0.162797
   11   C11        2.055938140     0.107725201     1.308001876     C.3   1  noname   -0.416753
   12   C12       -1.284040505    -0.237448146    -0.000620029     C.3   1  noname    0.902834
   13   C13       -1.378006982    -0.976467863    -1.338217245     C.3   1  noname   -0.304951
   14   C14       -2.783694422    -1.590295039    -1.495717712     C.3   1  noname   -0.187755
   15   C15       -3.383260878    -2.031950207    -0.145993240     C.3   1  noname   -0.167850
   16   C16       -2.275596652    -2.436363883     0.823557050     C.3   1  noname   -0.174708
   17   C17       -1.401630344    -1.221873903     1.179545900     C.3   1  noname   -0.288927
   18   H18       -0.779724241     4.352676979     1.501070411       H   1  noname    0.185092
   19   H19       -2.319938379     4.623576609     0.656482632       H   1  noname    0.167306
   20   H20       -0.784446556     4.609890961    -0.240097683       H   1  noname    0.184129
   21   H21       -2.059698944     2.207020590     1.186544178       H   1  noname    0.059712
   22   H22       -2.069390247     2.466646084    -0.550553919       H   1  noname    0.065326
   23   H23        0.994630749    -1.125390367    -0.094555598       H   1  noname   -0.097127
   24   H24        2.355716332     1.375756188    -1.105880162       H   1  noname    0.153496
   25   H25        1.369804100     0.314961904    -2.103988859       H   1  noname    0.080956
   26   H26        2.901593175    -1.495771174    -1.977935242       H   1  noname    0.066607
   27   H27        3.981963956    -0.112602343    -2.008233854       H   1  noname    0.112556
   28   H28        4.888542498    -1.255210274    -0.167721988       H   1  noname    0.082966
   29   H29        3.363492713    -2.004345222     0.265584250       H   1  noname    0.073459
   30   H30        3.940139361     0.965457984     0.676144305       H   1  noname    0.105188
   31   H31        4.100820749    -0.243170256     1.940848501       H   1  noname    0.083611
   32   H32        1.756011726    -0.670275906     2.022263515       H   1  noname    0.076545
   33   H33        1.835900431     1.074936726     1.762201961       H   1  noname    0.138755
   34   H34       -2.144473237     0.431983121     0.037816259       H   1  noname   -0.083585
   35   H35       -0.614032505    -1.761791359    -1.383837433       H   1  noname    0.085156
   36   H36       -1.165415862    -0.281775176    -2.158436533       H   1  noname    0.077035
   37   H37       -2.726056433    -2.449416571    -2.174083741       H   1  noname    0.096518
   38   H38       -3.451185278    -0.863830091    -1.974483772       H   1  noname    0.067949
   39   H39       -3.963707380    -1.214047183     0.298274009       H   1  noname    0.070190
   40   H40       -4.087805310    -2.855967384    -0.299993714       H   1  noname    0.079438
   41   H41       -1.660088129    -3.213694051     0.354345818       H   1  noname    0.090861
   42   H42       -2.690873690    -2.881282288     1.734766908       H   1  noname    0.084262
   43   H43       -1.822550497    -0.684346559     2.037652456       H   1  noname    0.065888
   44   H44       -0.405307928    -1.556082692     1.485332090       H   1  noname    0.057928


@<TRIPOS>BOND
    1      1      2    1
    2      2      3    1
    3      3      4    2
    4      3      5    am
    5      5      6    1
    6      6      7    1
    7      7      8    1
    8      8      9    1
    9      9     10    1
   10     10     11    1
   11      5     12    1
   12     12     13    1
   13     13     14    1
   14     14     15    1
   15     15     16    1
   16     16     17    1
   17     11      6    1
   18     17     12    1
   19      1     18    1
   20      1     19    1
   21      1     20    1
   22      2     21    1
   23      2     22    1
   24      6     23    1
   25      7     24    1
   26      7     25    1
   27      8     26    1
   28      8     27    1
   29      9     28    1
   30      9     29    1
   31     10     30    1
   32     10     31    1
   33     11     32    1
   34     11     33    1
   35     12     34    1
   36     13     35    1
   37     13     36    1
   38     14     37    1
   39     14     38    1
   40     15     39    1
   41     15     40    1
   42     16     41    1
   43     16     42    1
   44     17     43    1
   45     17     44    1
#
#	File Created by: Spartan'20 Export
#

@<TRIPOS>MOLECULE
M0156
15 14
SMALL
USER_CHARGES


@<TRIPOS>ATOM
    1   C1        -2.388533474    -0.032532803     0.016586036     C.3   1  noname   -0.380044
    2   C2        -1.059308250    -0.213315157     0.740991592     C.3   1  noname   -0.237881
    3   C3         0.103488587    -0.265558262    -0.237943601     C.2   1  noname    0.698405
    4   O4        -0.002721218    -0.776835858    -1.355848915     O.2   1  noname   -0.580921
    5   N5         1.271344498     0.273315266     0.224333304    N.am   1  noname   -0.556271
    6   C6         2.499301110     0.234580920    -0.546451683     C.3   1  noname   -0.195351
    7   H7        -3.223608013    -0.080654075     0.720515512       H   1  noname    0.118913
    8   H8        -2.509557741    -0.813210849    -0.735210467       H   1  noname    0.131362
    9   H9        -2.423777281     0.933544479    -0.493524308       H   1  noname    0.124990
   10   H10       -0.905425744     0.583756992     1.477816698       H   1  noname    0.082397
   11   H11       -1.061210871    -1.160203481     1.295295980       H   1  noname    0.111985
   12   H12        1.291862820     0.655329046     1.159549147       H   1  noname    0.326711
   13   H13        3.238258183    -0.432427061    -0.090935760       H   1  noname    0.101377
   14   H14        2.240791413    -0.141011770    -1.536066272       H   1  noname    0.145621
   15   H15        2.929095981     1.235222613    -0.639107264       H   1  noname    0.108704


@<TRIPOS>BOND
    1      1      2    1
    2      2      3    1
    3      3      4    2
    4      3      5    am
    5      5      6    1
    6      1      7    1
    7      1      8    1
    8      1      9    1
    9      2     10    1
   10      2     11    1
   11      5     12    1
   12      6     13    1
   13      6     14    1
   14      6     15    1
#
#	File Created by: Spartan'20 Export
#

@<TRIPOS>MOLECULE
M0157
17 16
SMALL
USER_CHARGES


@<TRIPOS>ATOM
    1   C1        -2.841166165     0.154379202    -0.337461587     C.3   1  noname   -0.530278
    2   C2        -1.673748027    -0.362317537     0.491316504     C.3   1  noname   -0.140922
    3   C3        -0.362784535     0.272566115     0.095148494     C.2   1  noname    0.848250
    4   O4        -0.211608559     1.084600344    -0.804058689     O.2   1  noname   -0.580474
    5   O5         0.643920737    -0.185005674     0.884033889     O.3   1  noname   -0.589522
    6   C6         1.957764287     0.350206241     0.583714534     C.3   1  noname    0.342547
    7   C7         2.601973282    -0.408027723    -0.559039768     C.3   1  noname   -0.537945
    8   H8        -3.770698436    -0.328474679    -0.025684273       H   1  noname    0.154926
    9   H9        -2.682810892    -0.046975968    -1.398410869       H   1  noname    0.151423
   10   H10       -2.953137048     1.233676740    -0.218266139       H   1  noname    0.151247
   11   H11       -1.558680655    -1.447284754     0.390449565       H   1  noname    0.103389
   12   H12       -1.825090680    -0.176373927     1.559860619       H   1  noname    0.094987
   13   H13        2.513564530     0.225860626     1.514354243       H   1  noname    0.045635
   14   H14        1.862337405     1.413129688     0.354694562       H   1  noname    0.034380
   15   H15        2.037010888    -0.254539371    -1.480589624       H   1  noname    0.165387
   16   H16        3.623736902    -0.049204624    -0.716062448       H   1  noname    0.126801
   17   H17        2.639416967    -1.476214700    -0.333999014       H   1  noname    0.160171


@<TRIPOS>BOND
    1      1      2    1
    2      2      3    1
    3      3      4    2
    4      3      5    1
    5      5      6    1
    6      6      7    1
    7      1      8    1
    8      1      9    1
    9      1     10    1
   10      2     11    1
   11      2     12    1
   12      6     13    1
   13      6     14    1
   14      7     15    1
   15      7     16    1
   16      7     17    1
#
#	File Created by: Spartan'20 Export
#

@<TRIPOS>MOLECULE
M0158
16 15
SMALL
USER_CHARGES


@<TRIPOS>ATOM
    1   C1        -2.866654179    -0.274194425    -0.023665078     C.3   1  noname   -0.641528
    2   C2        -1.419056379     0.008805061    -0.411731067     C.3   1  noname   -0.005371
    3   C3        -0.443608005    -0.313101008     0.727767465     C.3   1  noname    0.215816
    4   C4         0.951790626    -0.042749588     0.371848789     C.1   1  noname   -0.456047
    5   C5         2.108478854     0.191629028     0.052194040     C.1   1  noname    0.128952
    6   C6         3.497059772     0.466516508    -0.322231893     C.3   1  noname   -0.528436
    7   H7        -3.166186767     0.327187847     0.839872243       H   1  noname    0.158070
    8   H8        -3.547580551    -0.041278595    -0.846777826       H   1  noname    0.178366
    9   H9        -3.003990793    -1.327738645     0.237346222       H   1  noname    0.157185
   10   H10       -1.141932710    -0.581206346    -1.291606324       H   1  noname    0.071351
   11   H11       -1.302133845     1.061080730    -0.691180567       H   1  noname    0.072113
   12   H12       -0.718002994     0.271805100     1.615108904       H   1  noname    0.052910
   13   H13       -0.554151914    -1.367801094     1.010993026       H   1  noname    0.053703
   14   H14        3.554394935     1.300929442    -1.026862048       H   1  noname    0.177095
   15   H15        4.096099093     0.726061604     0.555160248       H   1  noname    0.184963
   16   H16        3.955474857    -0.405945618    -0.796236133       H   1  noname    0.180858


@<TRIPOS>BOND
    1      1      2    1
    2      2      3    1
    3      3      4    1
    4      4      5    3
    5      5      6    1
    6      1      7    1
    7      1      8    1
    8      1      9    1
    9      2     10    1
   10      2     11    1
   11      3     12    1
   12      3     13    1
   13      6     14    1
   14      6     15    1
   15      6     16    1
#
#	File Created by: Spartan'20 Export
#

@<TRIPOS>MOLECULE
M0159
16 15
SMALL
USER_CHARGES


@<TRIPOS>ATOM
    1   C1        -2.185415799    -0.559600125     0.562260402     C.3   1  noname   -0.676779
    2   C2        -0.738151471    -0.648764728     0.085754288     C.3   1  noname    0.183017
    3   C3        -0.233250423     0.669163718    -0.493309658     C.3   1  noname   -0.128902
    4   C4         1.217223226     0.594170771    -0.991708937     C.3   1  noname   -0.327712
    5   C5         2.165724651     0.280393064     0.080393544     C.1   1  noname    0.099111
    6   C6         2.945405307     0.031209268     0.986512285     C.1   1  noname   -0.526290
    7   H7        -2.854320834    -0.291305867    -0.261872753       H   1  noname    0.165800
    8   H8        -2.527626840    -1.513066550     0.975562677       H   1  noname    0.168977
    9   H9        -2.292290634     0.201740742     1.341496980       H   1  noname    0.167060
   10   H10       -0.647676372    -1.433644960    -0.676309963       H   1  noname    0.024005
   11   H11       -0.089818040    -0.945695873     0.917392228       H   1  noname    0.041776
   12   H12       -0.873175488     0.972162928    -1.332208693       H   1  noname    0.069895
   13   H13       -0.308904085     1.457365588     0.265501169       H   1  noname    0.100797
   14   H14        1.292355283    -0.169086626    -1.776791707       H   1  noname    0.145936
   15   H15        1.499830685     1.546861611    -1.456027611       H   1  noname    0.158951
   16   H16        3.630090836    -0.191902961     1.773355751       H   1  noname    0.334358


@<TRIPOS>BOND
    1      1      2    1
    2      2      3    1
    3      3      4    1
    4      4      5    1
    5      5      6    3
    6      1      7    1
    7      1      8    1
    8      1      9    1
    9      2     10    1
   10      2     11    1
   11      3     12    1
   12      3     13    1
   13      4     14    1
   14      4     15    1
   15      6     16    1
#
#	File Created by: Spartan'20 Export
#

@<TRIPOS>MOLECULE
M0160
21 20
SMALL
USER_CHARGES


@<TRIPOS>ATOM
    1   C1        -2.987287014     0.007200664    -0.117337731     C.3   1  noname   -0.513372
    2   C2        -2.018501812     0.394281213    -1.232880127     C.3   1  noname    0.053709
    3   C3        -0.667448221     0.906010460    -0.728743739     C.3   1  noname   -0.281968
    4   C4         0.146892898    -0.131314417     0.042493657     C.3   1  noname    0.032067
    5   C5         1.533290388     0.388034078     0.439942505     C.3   1  noname   -0.214720
    6   C6         2.312603978    -0.619783934     1.230744406     C.2   1  noname   -0.077803
    7   C7         3.463385891    -1.175048933     0.830728458     C.2   1  noname   -0.533662
    8   H8        -2.614485946    -0.837651032     0.467466844       H   1  noname    0.128375
    9   H9        -3.144650414     0.847013926     0.567649722       H   1  noname    0.144626
   10   H10       -3.961198911    -0.278248018    -0.525834887       H   1  noname    0.132102
   11   H11       -2.480504543     1.170972368    -1.854459827       H   1  noname    0.043628
   12   H12       -1.852463678    -0.467802311    -1.891496410       H   1  noname    0.044391
   13   H13       -0.074653196     1.252196335    -1.585704842       H   1  noname    0.069999
   14   H14       -0.829072239     1.785873073    -0.090690182       H   1  noname    0.098216
   15   H15        0.267901006    -1.034057259    -0.570569483       H   1  noname    0.057138
   16   H16       -0.391264089    -0.438635264     0.947228351       H   1  noname    0.061880
   17   H17        2.096560404     0.661283027    -0.461383836       H   1  noname    0.117342
   18   H18        1.411640773     1.308415758     1.028179823       H   1  noname    0.093158
   19   H19        1.881757036    -0.922074095     2.186207366       H   1  noname    0.130883
   20   H20        3.925063507    -0.903202664    -0.114776377       H   1  noname    0.212815
   21   H21        3.982434182    -1.913462975     1.433236307       H   1  noname    0.201196


@<TRIPOS>BOND
    1      1      2    1
    2      2      3    1
    3      3      4    1
    4      4      5    1
    5      5      6    1
    6      6      7    2
    7      1      8    1
    8      1      9    1
    9      1     10    1
   10      2     11    1
   11      2     12    1
   12      3     13    1
   13      3     14    1
   14      4     15    1
   15      4     16    1
   16      5     17    1
   17      5     18    1
   18      6     19    1
   19      7     20    1
   20      7     21    1
#
#	File Created by: Spartan'20 Export
#

@<TRIPOS>MOLECULE
M0161
17 16
SMALL
USER_CHARGES


@<TRIPOS>ATOM
    1   C1        -2.069142809     0.505824132    -0.608192155     C.3   1  noname   -0.443267
    2   C2        -1.324199835    -0.788535795    -0.288410997     C.3   1  noname   -0.080225
    3   C3         0.198469564    -0.658702422    -0.347282473     C.3   1  noname   -0.118899
    4   C4         0.782099561     0.294417434     0.692666077     C.3   1  noname   -0.011633
    5   C5         2.293436230     0.343628194     0.647945385     C.3   1  noname   -0.102381
    6   F6         2.706039262     0.786336101    -0.616288286       F   1  noname   -0.249491
    7   H7        -3.149604701     0.338375124    -0.630887709       H   1  noname    0.124559
    8   H8        -1.768981080     0.893331514    -1.586601012       H   1  noname    0.131811
    9   H9        -1.872276255     1.282343762     0.134776471       H   1  noname    0.113445
   10   H10       -1.636535559    -1.564198713    -0.997278833       H   1  noname    0.063613
   11   H11       -1.618598521    -1.145709995     0.706538718       H   1  noname    0.065369
   12   H12        0.647531260    -1.650756485    -0.206731540       H   1  noname    0.045978
   13   H13        0.500413089    -0.319481267    -1.344245457       H   1  noname    0.097988
   14   H14        0.477994812    -0.015176615     1.701577003       H   1  noname    0.040047
   15   H15        0.403338562     1.309951916     0.541412799       H   1  noname    0.087247
   16   H16        2.729378969    -0.647736963     0.809573202       H   1  noname    0.122661
   17   H17        2.700637454     1.036090078     1.391428808       H   1  noname    0.113178


@<TRIPOS>BOND
    1      1      2    1
    2      2      3    1
    3      3      4    1
    4      4      5    1
    5      5      6    1
    6      1      7    1
    7      1      8    1
    8      1      9    1
    9      2     10    1
   10      2     11    1
   11      3     12    1
   12      3     13    1
   13      4     14    1
   14      4     15    1
   15      5     16    1
   16      5     17    1
#
#	File Created by: Spartan'20 Export
#

@<TRIPOS>MOLECULE
M0162
37 36
SMALL
USER_CHARGES


@<TRIPOS>ATOM
    1   C1         3.572011861     1.532858535     0.226646164     C.3   1  noname   -0.520779
    2   C2         3.318893626     0.637609139    -0.984525211     C.3   1  noname    0.167582
    3   C3         2.846431797    -0.772716441    -0.616942943     C.3   1  noname   -0.400654
    4   C4         1.569917321    -0.828256889     0.226500250     C.3   1  noname   -0.178103
    5   C5         0.370514132    -0.160840318    -0.445139278     C.3   1  noname    0.357107
    6   N6        -0.841641258    -0.291764853     0.360406481     N.3   1  noname   -0.898135
    7   C7        -1.505570855    -1.595413182     0.217620124     C.3   1  noname    0.810024
    8   C8        -2.429760819    -1.743319345    -0.997063684     C.3   1  noname   -0.795115
    9   C9        -2.229973712    -1.971223423     1.508866171     C.3   1  noname   -0.846894
   10   C10       -1.716410599     0.892021613     0.375701146     C.3   1  noname    0.986481
   11   C11       -1.982611269     1.558469196    -0.982585778     C.3   1  noname   -0.901942
   12   C12       -1.157167873     1.911249095     1.369557526     C.3   1  noname   -0.834210
   13   H13        3.996507763     2.494327652    -0.078007717       H   1  noname    0.123745
   14   H14        2.650031837     1.738024957     0.777758480       H   1  noname    0.136421
   15   H15        4.276260620     1.059388940     0.919033028       H   1  noname    0.145374
   16   H16        4.243948945     0.551713618    -1.567337464       H   1  noname    0.026218
   17   H17        2.589849360     1.116393479    -1.649089176       H   1  noname   -0.010304
   18   H18        3.652553347    -1.282083326    -0.071898738       H   1  noname    0.133517
   19   H19        2.690499183    -1.347481139    -1.540045409       H   1  noname    0.096240
   20   H20        1.338223513    -1.878743849     0.440222356       H   1  noname    0.078524
   21   H21        1.722374610    -0.348271726     1.199776014       H   1  noname    0.090566
   22   H22        0.589371844     0.904672884    -0.560840105       H   1  noname    0.069647
   23   H23        0.245161976    -0.559922626    -1.469960977       H   1  noname   -0.021998
   24   H24       -0.690371957    -2.317838460     0.092175557       H   1  noname   -0.016668
   25   H25       -3.316292869    -1.109793182    -0.898885366       H   1  noname    0.187390
   26   H26       -2.771436426    -2.780156932    -1.085803159       H   1  noname    0.173005
   27   H27       -1.914249892    -1.479713295    -1.925128517       H   1  noname    0.179086
   28   H28       -2.605946355    -2.997845190     1.453178888       H   1  noname    0.192426
   29   H29       -3.087183380    -1.317520389     1.694391039       H   1  noname    0.209554
   30   H30       -1.544998185    -1.888785376     2.355382119       H   1  noname    0.183259
   31   H31       -2.681679654     0.552665240     0.769025026       H   1  noname   -0.055269
   32   H32       -2.364593800     0.851270959    -1.719994736       H   1  noname    0.201487
   33   H33       -2.722865400     2.356187807    -0.861971341       H   1  noname    0.192535
   34   H34       -1.074708498     2.015136161    -1.386220652       H   1  noname    0.186086
   35   H35       -1.040929711     1.448236141     2.352576032       H   1  noname    0.180358
   36   H36       -0.174827505     2.271687447     1.044157304       H   1  noname    0.198012
   37   H37       -1.819331718     2.779777077     1.458466545       H   1  noname    0.175426


@<TRIPOS>BOND
    1      1      2    1
    2      2      3    1
    3      3      4    1
    4      4      5    1
    5      5      6    1
    6      6      7    1
    7      7      8    1
    8      7      9    1
    9      6     10    1
   10     10     11    1
   11     10     12    1
   12      1     13    1
   13      1     14    1
   14      1     15    1
   15      2     16    1
   16      2     17    1
   17      3     18    1
   18      3     19    1
   19      4     20    1
   20      4     21    1
   21      5     22    1
   22      5     23    1
   23      7     24    1
   24      8     25    1
   25      8     26    1
   26      8     27    1
   27      9     28    1
   28      9     29    1
   29      9     30    1
   30     10     31    1
   31     11     32    1
   32     11     33    1
   33     11     34    1
   34     12     35    1
   35     12     36    1
   36     12     37    1
#
#	File Created by: Spartan'20 Export
#

@<TRIPOS>MOLECULE
M0163
16 15
SMALL
USER_CHARGES


@<TRIPOS>ATOM
    1   C1         2.105097481    -0.411391499     0.624947492     C.3   1  noname   -0.712347
    2   C2         0.648751503     0.043808163     0.664030247     C.3   1  noname    0.324724
    3   C3         0.028053224     0.156312411    -0.726024027     C.3   1  noname   -0.384505
    4   C4        -1.422106118     0.649460114    -0.722363377     C.3   1  noname    0.273280
    5   N5        -2.402566582    -0.204462435    -0.045918312     N.3   1  noname   -0.984238
    6   H6         2.526969592    -0.486110816     1.631009719       H   1  noname    0.164294
    7   H7         2.193744974    -1.392362733     0.149068480       H   1  noname    0.173852
    8   H8         2.717575233     0.292893102     0.054672420       H   1  noname    0.180938
    9   H9         0.581784884     1.016932925     1.166749807       H   1  noname   -0.005615
   10   H10        0.068762900    -0.660558003     1.271333036       H   1  noname   -0.011925
   11   H11        0.071730809    -0.822003612    -1.224467074       H   1  noname    0.108888
   12   H12        0.633956364     0.840602039    -1.335047876       H   1  noname    0.083615
   13   H13       -1.762356992     0.781340942    -1.755176966       H   1  noname    0.033821
   14   H14       -1.469297440     1.637710202    -0.250799075       H   1  noname    0.029246
   15   H15       -2.361493906    -1.143596275    -0.439850255       H   1  noname    0.370541
   16   H16       -2.158605926    -0.298574523     0.937835761       H   1  noname    0.355433


@<TRIPOS>BOND
    1      1      2    1
    2      2      3    1
    3      3      4    1
    4      4      5    1
    5      1      6    1
    6      1      7    1
    7      1      8    1
    8      2      9    1
    9      2     10    1
   10      3     11    1
   11      3     12    1
   12      4     13    1
   13      4     14    1
   14      5     15    1
   15      5     16    1
#
#	File Created by: Spartan'20 Export
#

@<TRIPOS>MOLECULE
M0164
26 26
SMALL
USER_CHARGES


@<TRIPOS>ATOM
    1   C1         3.970900520     0.728446475    -0.069171179     C.3   1  noname   -0.601393
    2   C2         2.854785737    -0.282581498     0.179814578     C.3   1  noname    0.049136
    3   C3         1.472554461     0.273665993    -0.155794902     C.3   1  noname   -0.007458
    4   C4         0.360757901    -0.734835097     0.108312748     C.3   1  noname   -0.376461
    5   N5        -0.941663743    -0.270143113    -0.349918412     N.3   1  noname   -0.253088
    6   C6        -1.979348496    -1.290158253    -0.203584385     C.3   1  noname   -0.093122
    7   C7        -3.269799938    -0.515418717    -0.475755112     C.3   1  noname   -0.189774
    8   C8        -2.946798446     0.919060858     0.006928880     C.3   1  noname   -0.231107
    9   C9        -1.468327354     0.859221264     0.417333743     C.3   1  noname   -0.038218
   10   H10        3.827253422     1.625613394     0.541304995       H   1  noname    0.148728
   11   H11        4.951853468     0.309574578     0.174547007       H   1  noname    0.159655
   12   H12        3.988075985     1.037772493    -1.118950091       H   1  noname    0.151433
   13   H13        3.036137661    -1.184687061    -0.418036130       H   1  noname    0.045446
   14   H14        2.873405076    -0.599514876     1.230322078       H   1  noname    0.041995
   15   H15        1.302730453     1.183800471     0.432305917       H   1  noname    0.071992
   16   H16        1.431414344     0.565334949    -1.212214457       H   1  noname    0.073071
   17   H17        0.587605679    -1.663716600    -0.430821151       H   1  noname    0.158582
   18   H18        0.335470356    -0.988917526     1.188577333       H   1  noname    0.120505
   19   H19       -1.988894225    -1.708636650     0.822838180       H   1  noname    0.092520
   20   H20       -1.806879734    -2.116624631    -0.901223877       H   1  noname    0.103649
   21   H21       -3.489773803    -0.519142413    -1.546406103       H   1  noname    0.103229
   22   H22       -4.128117489    -0.954384245     0.041002985       H   1  noname    0.091752
   23   H23       -3.578035570     1.230704140     0.843516708       H   1  noname    0.096214
   24   H24       -3.093377306     1.641383315    -0.799629817       H   1  noname    0.108508
   25   H25       -1.376115047     0.673877629     1.506352058       H   1  noname    0.093264
   26   H26       -0.925813913     1.780305120     0.188348405       H   1  noname    0.080941


@<TRIPOS>BOND
    1      1      2    1
    2      2      3    1
    3      3      4    1
    4      4      5    1
    5      5      6    1
    6      6      7    1
    7      7      8    1
    8      8      9    1
    9      9      5    1
   10      1     10    1
   11      1     11    1
   12      1     12    1
   13      2     13    1
   14      2     14    1
   15      3     15    1
   16      3     16    1
   17      4     17    1
   18      4     18    1
   19      6     19    1
   20      6     20    1
   21      7     21    1
   22      7     22    1
   23      8     23    1
   24      8     24    1
   25      9     25    1
   26      9     26    1
#
#	File Created by: Spartan'20 Export
#

@<TRIPOS>MOLECULE
M0165
27 26
SMALL
USER_CHARGES


@<TRIPOS>ATOM
    1   C1        -4.039601775    -1.384559280     0.022330087     C.3   1  noname   -0.451947
    2   C2        -3.535606138     0.027266692     0.319345295     C.3   1  noname   -0.077495
    3   C3        -2.072094321     0.085664138     0.765644055     C.3   1  noname   -0.127693
    4   C4        -1.093501414    -0.340552267    -0.322723992     C.3   1  noname    0.039236
    5   O5         0.265298770    -0.332268609     0.109088733     O.3   1  noname   -0.403132
    6   C6         0.826415988     0.972005167     0.212029126     C.3   1  noname   -0.037012
    7   C7         2.320365035     0.814457114     0.427955493     C.3   1  noname   -0.291758
    8   C8         3.023216108     0.117843734    -0.733171761     C.3   1  noname    0.262167
    9   C9         4.522915792    -0.038785512    -0.498037827     C.3   1  noname   -0.705709
   10   H10       -3.526400725    -1.831813662    -0.832874050       H   1  noname    0.122164
   11   H11       -3.885042533    -2.039179332     0.885998204       H   1  noname    0.132114
   12   H12       -5.109778343    -1.376121601    -0.204723799       H   1  noname    0.127030
   13   H13       -4.158062715     0.469081654     1.105791929       H   1  noname    0.065600
   14   H14       -3.670197184     0.660996081    -0.566693566       H   1  noname    0.066518
   15   H15       -1.918862181    -0.561591955     1.637736879       H   1  noname    0.098708
   16   H16       -1.837900357     1.107802183     1.083719978       H   1  noname    0.054524
   17   H17       -1.282687996    -1.373076730    -0.628651781       H   1  noname    0.104285
   18   H18       -1.210935100     0.301787499    -1.211556147       H   1  noname    0.064732
   19   H19        0.377669264     1.531947675     1.045497146       H   1  noname    0.098958
   20   H20        0.629603814     1.538031868    -0.714136801       H   1  noname    0.087828
   21   H21        2.477887741     0.245856788     1.352289184       H   1  noname    0.130155
   22   H22        2.756129497     1.809922754     0.587177359       H   1  noname    0.092922
   23   H23        2.560898009    -0.861445393    -0.886647297       H   1  noname    0.027583
   24   H24        2.851772335     0.693551155    -1.651997563       H   1  noname    0.005917
   25   H25        5.009028377    -0.538305721    -1.341602113       H   1  noname    0.166537
   26   H26        5.003665907     0.935708833    -0.362055634       H   1  noname    0.172740
   27   H27        4.715804144    -0.634223272     0.400268861       H   1  noname    0.175026


@<TRIPOS>BOND
    1      1      2    1
    2      2      3    1
    3      3      4    1
    4      4      5    1
    5      5      6    1
    6      6      7    1
    7      7      8    1
    8      8      9    1
    9      1     10    1
   10      1     11    1
   11      1     12    1
   12      2     13    1
   13      2     14    1
   14      3     15    1
   15      3     16    1
   16      4     17    1
   17      4     18    1
   18      6     19    1
   19      6     20    1
   20      7     21    1
   21      7     22    1
   22      8     23    1
   23      8     24    1
   24      9     25    1
   25      9     26    1
   26      9     27    1
#
#	File Created by: Spartan'20 Export
#

@<TRIPOS>MOLECULE
M0166
23 23
SMALL
USER_CHARGES


@<TRIPOS>ATOM
    1   C1         3.435960671     0.433914253    -0.052818861     C.3   1  noname   -0.438589
    2   C2         2.650469967    -0.843405446     0.235711011     C.3   1  noname   -0.008451
    3   C3         1.174704895    -0.765407584    -0.157363346     C.3   1  noname    0.046171
    4   C4         0.374377880     0.266688331     0.646144208     C.3   1  noname   -0.568016
    5   C5        -1.087355003     0.209454373     0.296262144     C.2   1  noname    0.742969
    6   C6        -1.698434749     1.183762612    -0.501691046     C.2   1  noname   -0.587767
    7   C7        -3.047059861     1.053368770    -0.828641886     C.2   1  noname    0.191523
    8   C8        -3.745565893    -0.053292685    -0.348321058     C.2   1  noname   -0.472612
    9   C9        -3.058727932    -0.978982354     0.437431776     C.2   1  noname    0.349986
   10   N10       -1.759653628    -0.865910956     0.760669697     N.2   1  noname   -0.653661
   11   H11        3.360036907     0.703115706    -1.111469775       H   1  noname    0.118157
   12   H12        4.496383578     0.305266097     0.184309306       H   1  noname    0.114703
   13   H13        3.067557962     1.278630478     0.535559372       H   1  noname    0.125638
   14   H14        2.723951077    -1.088526569     1.302406329       H   1  noname    0.056503
   15   H15        3.113727039    -1.677652256    -0.304137591       H   1  noname    0.028404
   16   H16        0.699563667    -1.742554466    -0.010415195       H   1  noname    0.035970
   17   H17        1.092527455    -0.530363012    -1.227783677       H   1  noname    0.045762
   18   H18        0.754226146     1.279734628     0.468632436       H   1  noname    0.158060
   19   H19        0.484316665     0.052912734     1.716440891       H   1  noname    0.160312
   20   H20       -1.120822195     2.034543298    -0.856259364       H   1  noname    0.199546
   21   H21       -3.542285699     1.800420485    -1.443937645       H   1  noname    0.105634
   22   H22       -4.798358983    -0.199385147    -0.573972531       H   1  noname    0.179677
   23   H23       -3.569539967    -1.856331292     0.833244806       H   1  noname    0.070081


@<TRIPOS>BOND
    1      1      2    1
    2      2      3    1
    3      3      4    1
    4      4      5    1
    5      5      6    2
    6      6      7    1
    7      7      8    2
    8      8      9    1
    9      9     10    2
   10     10      5    1
   11      1     11    1
   12      1     12    1
   13      1     13    1
   14      2     14    1
   15      2     15    1
   16      3     16    1
   17      3     17    1
   18      4     18    1
   19      4     19    1
   20      6     20    1
   21      7     21    1
   22      8     22    1
   23      9     23    1
#
#	File Created by: Spartan'20 Export
#

@<TRIPOS>MOLECULE
M0167
13 12
SMALL
USER_CHARGES


@<TRIPOS>ATOM
    1   C1        -1.460461507    -0.560632685    -0.166985293     C.3   1  noname   -0.409313
    2   C2        -0.428010441     0.474367940    -0.601536038     C.3   1  noname   -0.009352
    3   C3         0.724226481     0.617088000     0.388107129     C.3   1  noname    0.253739
    4   N4         1.453231748    -0.650837820     0.512529552     N.3   1  noname   -0.917308
    5   H5        -0.991287384    -1.536314266    -0.039435260       H   1  noname    0.121711
    6   H6        -2.264907500    -0.649312476    -0.902392009       H   1  noname    0.103990
    7   H7        -1.910180140    -0.276887151     0.789521810       H   1  noname    0.108683
    8   H8        -0.904645765     1.454757369    -0.728060873       H   1  noname    0.011571
    9   H9        -0.018244048     0.203874715    -1.584670510       H   1  noname    0.055449
   10   H10        0.319697616     0.863759797     1.377206117       H   1  noname    0.042583
   11   H11        1.360756975     1.465517760     0.083601351       H   1  noname   -0.046217
   12   H12        1.948627895    -0.837399259    -0.359043994       H   1  noname    0.344684
   13   H13        2.171196070    -0.567981923     1.231158017       H   1  noname    0.339779


@<TRIPOS>BOND
    1      1      2    1
    2      2      3    1
    3      3      4    1
    4      1      5    1
    5      1      6    1
    6      1      7    1
    7      2      8    1
    8      2      9    1
    9      3     10    1
   10      3     11    1
   11      4     12    1
   12      4     13    1
#
#	File Created by: Spartan'20 Export
#

@<TRIPOS>MOLECULE
M0168
31 30
SMALL
USER_CHARGES


@<TRIPOS>ATOM
    1   C1         2.885191993    -2.739346835    -0.086094698     C.3   1  noname   -0.690559
    2   C2         2.293615751    -1.377462366    -0.442513339     C.3   1  noname    0.030700
    3   C3         0.800209566    -1.308088684    -0.132211559     C.3   1  noname    0.171749
    4   N4         0.202282717    -0.033085380    -0.536595828     N.3   1  noname   -0.715373
    5   C5        -1.215841777    -0.167507170    -0.881863814     C.3   1  noname    0.080121
    6   C6        -2.181491641    -0.528572384     0.252379467     C.3   1  noname    0.159475
    7   C7        -3.608882422    -0.694999405    -0.265095098     C.3   1  noname   -0.743526
    8   C8         0.468430469     1.015682177     0.448548396     C.3   1  noname    0.111433
    9   C9         0.065374395     2.408058399    -0.026976217     C.3   1  noname    0.111471
   10   C10        0.594169613     3.494492653     0.906324496     C.3   1  noname   -0.738497
   11   H11        2.761934925    -2.954973175     0.979847534       H   1  noname    0.168708
   12   H12        2.392454091    -3.539239611    -0.647859482       H   1  noname    0.168423
   13   H13        3.954034647    -2.780034552    -0.314138820       H   1  noname    0.183980
   14   H14        2.426295752    -1.166907122    -1.508765781       H   1  noname    0.065420
   15   H15        2.832354967    -0.594464648     0.102009549       H   1  noname    0.066039
   16   H16        0.299484775    -2.105152340    -0.696225605       H   1  noname    0.072699
   17   H17        0.633223349    -1.528961995     0.938991553       H   1  noname    0.016604
   18   H18       -1.545890775     0.766539342    -1.352092756       H   1  noname    0.043613
   19   H19       -1.280369524    -0.937304684    -1.662189958       H   1  noname    0.075716
   20   H20       -1.853020926    -1.456565296     0.736012870       H   1  noname    0.017256
   21   H21       -2.160942617     0.251122520     1.023231887       H   1  noname    0.042349
   22   H22       -4.300916117    -0.948672503     0.543299078       H   1  noname    0.187824
   23   H23       -3.963901074     0.228917411    -0.733369453       H   1  noname    0.180018
   24   H24       -3.663389590    -1.491005768    -1.015341282       H   1  noname    0.178384
   25   H25       -0.008727012     0.806128617     1.425422410       H   1  noname    0.020913
   26   H26        1.548485268     1.021083968     0.632879196       H   1  noname    0.072495
   27   H27       -1.025180468     2.490492120    -0.090932186       H   1  noname    0.061146
   28   H28        0.457551573     2.551094830    -1.040026808       H   1  noname    0.052262
   29   H29        0.225320064     3.348575572     1.925896743       H   1  noname    0.176956
   30   H30        1.687385364     3.480895205     0.940584671       H   1  noname    0.184353
   31   H31        0.280754663     4.489261102     0.576864836       H   1  noname    0.187846


@<TRIPOS>BOND
    1      1      2    1
    2      2      3    1
    3      3      4    1
    4      4      5    1
    5      5      6    1
    6      6      7    1
    7      4      8    1
    8      8      9    1
    9      9     10    1
   10      1     11    1
   11      1     12    1
   12      1     13    1
   13      2     14    1
   14      2     15    1
   15      3     16    1
   16      3     17    1
   17      5     18    1
   18      5     19    1
   19      6     20    1
   20      6     21    1
   21      7     22    1
   22      7     23    1
   23      7     24    1
   24      8     25    1
   25      8     26    1
   26      9     27    1
   27      9     28    1
   28     10     29    1
   29     10     30    1
   30     10     31    1
#
#	File Created by: Spartan'20 Export
#

@<TRIPOS>MOLECULE
M0169
22 21
SMALL
USER_CHARGES


@<TRIPOS>ATOM
    1   C1         3.603025452     1.070292917     0.243650876     C.3   1  noname   -0.673704
    2   C2         2.153265678     0.802292881     0.637612658     C.3   1  noname    0.202326
    3   C3         1.518120044    -0.306697368    -0.196149487     C.3   1  noname   -0.023453
    4   N4         0.169813685    -0.586602855     0.274908237     N.2   1  noname   -0.581483
    5   C5        -0.771110624    -0.427462275    -0.587117382     C.2   1  noname    0.404364
    6   N6        -2.086461191    -0.733097738    -0.324708830   N.pl3   1  noname   -0.159260
    7   C7        -3.109937343    -0.034935036    -1.080734619     C.3   1  noname   -0.457702
    8   C8        -2.428030991    -1.062575919     1.048137493     C.3   1  noname   -0.482630
    9   H9         3.677800255     1.360742943    -0.809285645       H   1  noname    0.161196
   10   H10        4.218317213     0.176706046     0.388027181       H   1  noname    0.164619
   11   H11        4.035731815     1.875437310     0.843977610       H   1  noname    0.163097
   12   H12        2.088730978     0.519342833     1.693651298       H   1  noname    0.027504
   13   H13        1.553286879     1.711974709     0.519088638       H   1  noname    0.022213
   14   H14        1.539568722    -0.023059225    -1.264401987       H   1  noname    0.034222
   15   H15        2.118259810    -1.221093761    -0.097085989       H   1  noname    0.089476
   16   H16       -0.597938581    -0.082743934    -1.618118266       H   1  noname    0.075567
   17   H17       -3.368662936     0.939274942    -0.639686270       H   1  noname    0.171991
   18   H18       -2.760089860     0.127642888    -2.102779021       H   1  noname    0.147994
   19   H19       -4.014798247    -0.647975935    -1.120351857       H   1  noname    0.177394
   20   H20       -3.410527756    -1.540681221     1.058213885       H   1  noname    0.185748
   21   H21       -2.452686868    -0.171229712     1.690913905       H   1  noname    0.171497
   22   H22       -1.675676133    -1.745552490     1.442237573       H   1  noname    0.179024


@<TRIPOS>BOND
    1      1      2    1
    2      2      3    1
    3      3      4    1
    4      4      5    2
    5      5      6    1
    6      6      7    1
    7      6      8    1
    8      1      9    1
    9      1     10    1
   10      1     11    1
   11      2     12    1
   12      2     13    1
   13      3     14    1
   14      3     15    1
   15      5     16    1
   16      7     17    1
   17      7     18    1
   18      7     19    1
   19      8     20    1
   20      8     21    1
   21      8     22    1
#
#	File Created by: Spartan'20 Export
#

@<TRIPOS>MOLECULE
M0170
10 9
SMALL
USER_CHARGES


@<TRIPOS>ATOM
    1   C1        -0.213388280    -0.000011184    -1.052441158     C.3   1  noname   -0.683551
    2   C2         0.619658288    -0.000013406     0.227952090     C.3   1  noname    0.530779
    3   N3        -0.145037035    -0.000003780     1.478742253     N.3   1  noname   -1.073955
    4   H4        -0.855840554     0.884891901    -1.095098596       H   1  noname    0.162499
    5   H5        -0.855720487    -0.884999458    -1.095178587       H   1  noname    0.162500
    6   H6         0.421398654     0.000073130    -1.943833025       H   1  noname    0.146375
    7   H7         1.274322462    -0.876837152     0.245108544       H   1  noname   -0.007507
    8   H8         1.274332376     0.876803512     0.245108305       H   1  noname   -0.007506
    9   H9        -0.759798169     0.812843093     1.494858646       H   1  noname    0.385179
   10   H10       -0.759927255    -0.812746655     1.494781528       H   1  noname    0.385188


@<TRIPOS>BOND
    1      1      2    1
    2      2      3    1
    3      1      4    1
    4      1      5    1
    5      1      6    1
    6      2      7    1
    7      2      8    1
    8      3      9    1
    9      3     10    1
#
#	File Created by: Spartan'20 Export
#

@<TRIPOS>MOLECULE
M0171
28 27
SMALL
USER_CHARGES


@<TRIPOS>ATOM
    1   C1         0.631605848     2.563064363    -0.508480600     C.3   1  noname   -0.676897
    2   C2         1.068834931     1.104811887    -0.609235852     C.3   1  noname    0.285920
    3   N3         0.340853289     0.215973853     0.296704392     N.3   1  noname   -0.759402
    4   C4        -1.076066442    -0.047704743    -0.039430876     C.3   1  noname    1.041909
    5   C5        -1.421301864    -0.028413590    -1.532616952     C.3   1  noname   -0.873883
    6   C6        -2.000546003     0.876482712     0.755649788     C.3   1  noname   -0.895124
    7   C7         1.113682127    -0.990954819     0.642531595     C.3   1  noname    0.656566
    8   C8         1.203237354    -2.048490445    -0.463808069     C.3   1  noname   -0.783080
    9   C9         0.620786321    -1.598463334     1.954467986     C.3   1  noname   -0.781616
   10   H10        0.632663753     2.877835427     0.537888877       H   1  noname    0.188895
   11   H11       -0.366202789     2.729843362    -0.918221821       H   1  noname    0.168839
   12   H12        1.326839557     3.197145617    -1.068345359       H   1  noname    0.157959
   13   H13        2.121295722     1.052121830    -0.310266510       H   1  noname    0.035532
   14   H14        1.035463981     0.783831263    -1.664153659       H   1  noname    0.019574
   15   H15       -1.289494776    -1.063258425     0.308415882       H   1  noname   -0.070596
   16   H16       -2.464290372    -0.334521841    -1.665541206       H   1  noname    0.171336
   17   H17       -0.791919577    -0.717732035    -2.101208743       H   1  noname    0.194326
   18   H18       -1.315264060     0.970208175    -1.965070995       H   1  noname    0.220076
   19   H19       -1.903918107     1.916215203     0.433649397       H   1  noname    0.224801
   20   H20       -1.748854756     0.824489689     1.818620105       H   1  noname    0.193040
   21   H21       -3.047501267     0.576480609     0.625235027       H   1  noname    0.177671
   22   H22        2.131403710    -0.628695589     0.833404770       H   1  noname    0.012083
   23   H23        0.224230840    -2.493246910    -0.665583598       H   1  noname    0.189180
   24   H24        1.584723511    -1.617187607    -1.393729160       H   1  noname    0.157613
   25   H25        1.878806805    -2.856981896    -0.165484656       H   1  noname    0.186078
   26   H26        0.565678475    -0.824533739     2.723826068       H   1  noname    0.178065
   27   H27        1.311783449    -2.379829653     2.287558360       H   1  noname    0.185533
   28   H28       -0.366529659    -2.058489366     1.853225807       H   1  noname    0.195602


@<TRIPOS>BOND
    1      1      2    1
    2      2      3    1
    3      3      4    1
    4      4      5    1
    5      4      6    1
    6      3      7    1
    7      7      8    1
    8      7      9    1
    9      1     10    1
   10      1     11    1
   11      1     12    1
   12      2     13    1
   13      2     14    1
   14      4     15    1
   15      5     16    1
   16      5     17    1
   17      5     18    1
   18      6     19    1
   19      6     20    1
   20      6     21    1
   21      7     22    1
   22      8     23    1
   23      8     24    1
   24      8     25    1
   25      9     26    1
   26      9     27    1
   27      9     28    1
#
#	File Created by: Spartan'20 Export
#

@<TRIPOS>MOLECULE
M0172
16 15
SMALL
USER_CHARGES


@<TRIPOS>ATOM
    1   C1         1.954145978     0.437005152    -0.204278044     C.3   1  noname   -0.682716
    2   C2         0.598282585     0.596855013     0.469203471     C.3   1  noname    0.176340
    3   N3        -0.308245808    -0.517814261     0.199691703     N.3   1  noname   -0.230621
    4   C4        -1.494398955    -0.407882310     1.038042267     C.3   1  noname   -0.531493
    5   C5        -0.701200994    -0.564896636    -1.202423188     C.3   1  noname   -0.410285
    6   H6         2.641414462     1.209187452     0.153130736       H   1  noname    0.165836
    7   H7         2.374596561    -0.542186576     0.035200608       H   1  noname    0.187512
    8   H8         1.891868059     0.531576471    -1.290042584       H   1  noname    0.197188
    9   H9         0.746071033     0.633334672     1.553903964       H   1  noname    0.078892
   10   H10        0.142381035     1.563957846     0.176600726       H   1  noname    0.051236
   11   H11       -2.146405779    -1.266796944     0.858097607       H   1  noname    0.203824
   12   H12       -2.074609699     0.513423387     0.845687759       H   1  noname    0.153285
   13   H13       -1.199023334    -0.414817382     2.090497837       H   1  noname    0.171450
   14   H14        0.166523887    -0.753841733    -1.835711189       H   1  noname    0.158998
   15   H15       -1.185479198     0.370235830    -1.540178359       H   1  noname    0.141127
   16   H16       -1.405919832    -1.387339979    -1.347423313       H   1  noname    0.169427


@<TRIPOS>BOND
    1      1      2    1
    2      2      3    1
    3      3      4    1
    4      3      5    1
    5      1      6    1
    6      1      7    1
    7      1      8    1
    8      2      9    1
    9      2     10    1
   10      4     11    1
   11      4     12    1
   12      4     13    1
   13      5     14    1
   14      5     15    1
   15      5     16    1
#
#	File Created by: Spartan'20 Export
#

@<TRIPOS>MOLECULE
M0173
42 43
SMALL
USER_CHARGES


@<TRIPOS>ATOM
    1   C1         0.474449940     1.423083510    -3.014259162     C.3   1  noname   -0.676119
    2   C2        -0.077647193     0.269383311    -2.184343879     C.3   1  noname    0.255971
    3   N3        -0.005116799     0.551153079    -0.750730084   N.pl3   1  noname   -0.882634
    4   C4        -1.113306937     0.011746828     0.052651501     C.3   1  noname    0.721790
    5   C5        -1.538363649    -1.438319142    -0.235749943     C.3   1  noname   -0.384635
    6   C6        -2.664110180    -1.875975424     0.705593200     C.3   1  noname   -0.183390
    7   C7        -3.869713382    -0.943804318     0.597625353     C.3   1  noname   -0.126353
    8   C8        -3.462455438     0.502678176     0.873904128     C.3   1  noname   -0.280539
    9   C9        -2.324064066     0.945478793    -0.046692294     C.3   1  noname   -0.252018
   10   C10        1.339616728     0.377741242    -0.187798148     C.3   1  noname    0.708060
   11   C11        1.560022415     1.360072964     0.978682214     C.3   1  noname   -0.389610
   12   C12        2.718151368     0.930932640     1.894230769     C.3   1  noname   -0.162543
   13   C13        3.805435322     0.232150196     1.081614112     C.3   1  noname   -0.138824
   14   C14        3.270996668    -1.090193441     0.498883311     C.3   1  noname   -0.288097
   15   C15        1.753931180    -1.039941595     0.228234249     C.3   1  noname   -0.235512
   16   H16        0.381303728     1.204954542    -4.084225590       H   1  noname    0.163040
   17   H17        1.531758953     1.608577896    -2.804402855       H   1  noname    0.169219
   18   H18       -0.081739105     2.336059230    -2.787510470       H   1  noname    0.183474
   19   H19       -1.128756868     0.134709380    -2.451991567       H   1  noname    0.054947
   20   H20        0.433813819    -0.670395346    -2.455803541       H   1  noname    0.002105
   21   H21       -0.778948955     0.040932189     1.099006058       H   1  noname   -0.029863
   22   H22       -1.895663633    -1.518651197    -1.270294739       H   1  noname    0.101571
   23   H23       -0.683568792    -2.114743674    -0.141781988       H   1  noname    0.076798
   24   H24       -2.294909444    -1.872113674     1.740896704       H   1  noname    0.079046
   25   H25       -2.957769081    -2.909167820     0.482671048       H   1  noname    0.090211
   26   H26       -4.659987569    -1.258424519     1.289846697       H   1  noname    0.069196
   27   H27       -4.289904249    -1.014969013    -0.415090520       H   1  noname    0.086612
   28   H28       -4.323368725     1.172625833     0.760194982       H   1  noname    0.102469
   29   H29       -3.134717006     0.589718320     1.919280634       H   1  noname    0.100565
   30   H30       -2.683225979     0.963565667    -1.085284996       H   1  noname    0.114030
   31   H31       -1.995757489     1.962962633     0.192161589       H   1  noname    0.063955
   32   H32        2.027188140     0.671263579    -0.990693928       H   1  noname    0.016548
   33   H33        1.751108842     2.352884105     0.555184478       H   1  noname    0.101105
   34   H34        0.638752933     1.451152167     1.564026482       H   1  noname    0.094004
   35   H35        3.120830442     1.799975494     2.426894930       H   1  noname    0.081395
   36   H36        2.352880506     0.240763296     2.665222575       H   1  noname    0.095567
   37   H37        4.127100515     0.900272677     0.273065005       H   1  noname    0.071014
   38   H38        4.694206447     0.042553586     1.693628423       H   1  noname    0.073937
   39   H39        3.802424964    -1.322632025    -0.431636981       H   1  noname    0.087185
   40   H40        3.486590726    -1.913231870     1.190256727       H   1  noname    0.114028
   41   H41        1.199387740    -1.333115231     1.127887271       H   1  noname    0.076131
   42   H42        1.493143164    -1.761713047    -0.553351756       H   1  noname    0.076163


@<TRIPOS>BOND
    1      1      2    1
    2      2      3    1
    3      3      4    1
    4      4      5    1
    5      5      6    1
    6      6      7    1
    7      7      8    1
    8      8      9    1
    9      3     10    1
   10     10     11    1
   11     11     12    1
   12     12     13    1
   13     13     14    1
   14     14     15    1
   15      9      4    1
   16     15     10    1
   17      1     16    1
   18      1     17    1
   19      1     18    1
   20      2     19    1
   21      2     20    1
   22      4     21    1
   23      5     22    1
   24      5     23    1
   25      6     24    1
   26      6     25    1
   27      7     26    1
   28      7     27    1
   29      8     28    1
   30      8     29    1
   31      9     30    1
   32      9     31    1
   33     10     32    1
   34     11     33    1
   35     11     34    1
   36     12     35    1
   37     12     36    1
   38     13     37    1
   39     13     38    1
   40     14     39    1
   41     14     40    1
   42     15     41    1
   43     15     42    1
#
#	File Created by: Spartan'20 Export
#

@<TRIPOS>MOLECULE
M0174
21 20
SMALL
USER_CHARGES


@<TRIPOS>ATOM
    1   C1         0.517394950     2.528626987     0.079097583     C.3   1  noname   -0.566974
    2   C2        -0.377074879     1.457175420    -0.532102208     C.3   1  noname    0.085984
    3   N3         0.058478876     0.108666622    -0.171369734   N.pl3   1  noname   -0.349099
    4   C4        -0.566775309    -0.518012296     0.986185736     C.3   1  noname    0.154718
    5   C5        -1.885711842    -1.206942872     0.647637480     C.3   1  noname   -0.596444
    6   C6         1.053633577    -0.457189939    -0.925190752     C.2   1  noname    0.785259
    7   O7         1.566531329     0.148958026    -1.874776822     O.2   1  noname   -0.614960
    8   C8         1.512784302    -1.853344337    -0.545965314     C.3   1  noname   -0.781199
    9   H9         0.536893379     2.447379706     1.169981089       H   1  noname    0.135059
   10   H10        1.533257081     2.412691350    -0.302960025       H   1  noname    0.180328
   11   H11        0.157801053     3.528729264    -0.182928996       H   1  noname    0.150837
   12   H12       -0.362712224     1.531696460    -1.621251785       H   1  noname    0.079778
   13   H13       -1.413028491     1.572185625    -0.196752917       H   1  noname    0.086123
   14   H14       -0.730589919     0.263675313     1.737225636       H   1  noname    0.078752
   15   H15        0.130454660    -1.229403702     1.433143400       H   1  noname    0.051324
   16   H16       -2.342780130    -1.630208118     1.548038398       H   1  noname    0.154933
   17   H17       -2.591845666    -0.497902176     0.207394320       H   1  noname    0.158172
   18   H18       -1.723241393    -2.014217958    -0.071272485       H   1  noname    0.161072
   19   H19        2.180417206    -2.194272935    -1.336818249       H   1  noname    0.215196
   20   H20        2.065523289    -1.843711276     0.398733262       H   1  noname    0.209031
   21   H21        0.680590150    -2.554579163    -0.446047618       H   1  noname    0.222112


@<TRIPOS>BOND
    1      1      2    1
    2      2      3    1
    3      3      4    1
    4      4      5    1
    5      3      6    1
    6      6      7    2
    7      6      8    1
    8      1      9    1
    9      1     10    1
   10      1     11    1
   11      2     12    1
   12      2     13    1
   13      4     14    1
   14      4     15    1
   15      5     16    1
   16      5     17    1
   17      5     18    1
   18      8     19    1
   19      8     20    1
   20      8     21    1
#
#	File Created by: Spartan'20 Export
#

@<TRIPOS>MOLECULE
M0175
32 31
SMALL
USER_CHARGES


@<TRIPOS>ATOM
    1   C1        -2.739170384     1.984093728     0.646632548     C.3   1  noname   -0.574240
    2   C2        -1.915413649     0.859051364     1.265902267     C.3   1  noname    0.032836
    3   N3        -1.051703789     0.147877077     0.317345010   N.pl3   1  noname   -0.429763
    4   C4        -1.736461703    -0.757496304    -0.608568371     C.3   1  noname    0.291690
    5   C5        -2.078852604    -2.104517627     0.018529303     C.3   1  noname   -0.664434
    6   C6         0.103390897     0.828663725    -0.047697145     C.2   1  noname    0.895466
    7   O7         0.318139901     1.993090779     0.316700328     O.2   1  noname   -0.591059
    8   N8         1.005927977     0.122279615    -0.841147629    N.am   1  noname   -0.668363
    9   C9         1.346232697    -1.271510918    -0.525206216     C.3   1  noname    0.216560
   10   C10        1.665409953    -1.533619841     0.945105919     C.3   1  noname   -0.564266
   11   C11        2.079752025     0.935638655    -1.422119523     C.3   1  noname    0.166030
   12   C12        3.259170919     1.214300297    -0.496607815     C.3   1  noname   -0.522901
   13   H13       -3.369095232     2.449252464     1.411385323       H   1  noname    0.155913
   14   H14       -3.397193323     1.617509311    -0.146396187       H   1  noname    0.150610
   15   H15       -2.069782945     2.741141163     0.236004009       H   1  noname    0.168637
   16   H16       -2.567656627     0.112061672     1.729216498       H   1  noname    0.092771
   17   H17       -1.270409879     1.264994378     2.046952459       H   1  noname    0.094270
   18   H18       -2.661295537    -0.277354614    -0.955779115       H   1  noname    0.047037
   19   H19       -1.105656554    -0.878907335    -1.490101433       H   1  noname    0.018778
   20   H20       -2.585512624    -2.743070135    -0.712609547       H   1  noname    0.155411
   21   H21       -2.750026773    -1.981171013     0.872893092       H   1  noname    0.178386
   22   H22       -1.181301047    -2.618774376     0.367832704       H   1  noname    0.184557
   23   H23        0.545500552    -1.942595805    -0.851169905       H   1  noname    0.059881
   24   H24        2.215066175    -1.516814926    -1.145901847       H   1  noname    0.082237
   25   H25        1.915052367    -2.589941411     1.090252783       H   1  noname    0.128971
   26   H26        0.801430359    -1.296050948     1.568740886       H   1  noname    0.147133
   27   H27        2.511160627    -0.929657856     1.279957289       H   1  noname    0.174006
   28   H28        2.416638985     0.415884560    -2.326230195       H   1  noname    0.054316
   29   H29        1.628554992     1.879487174    -1.731123146       H   1  noname    0.074306
   30   H30        3.981187329     1.867700771    -0.997748707       H   1  noname    0.127319
   31   H31        3.781555823     0.294768056    -0.221032774       H   1  noname    0.149945
   32   H32        2.905361094     1.713688320     0.405989140       H   1  noname    0.167957


@<TRIPOS>BOND
    1      1      2    1
    2      2      3    1
    3      3      4    1
    4      4      5    1
    5      3      6    1
    6      6      7    2
    7      6      8    am
    8      8      9    1
    9      9     10    1
   10      8     11    1
   11     11     12    1
   12      1     13    1
   13      1     14    1
   14      1     15    1
   15      2     16    1
   16      2     17    1
   17      4     18    1
   18      4     19    1
   19      5     20    1
   20      5     21    1
   21      5     22    1
   22      9     23    1
   23      9     24    1
   24     10     25    1
   25     10     26    1
   26     10     27    1
   27     11     28    1
   28     11     29    1
   29     12     30    1
   30     12     31    1
   31     12     32    1
#
#	File Created by: Spartan'20 Export
#

@<TRIPOS>MOLECULE
M0176
27 27
SMALL
USER_CHARGES


@<TRIPOS>ATOM
    1   C1        -3.082453258    -1.013264145    -0.892658663     C.3   1  noname   -0.544287
    2   C2        -2.463592997    -0.425844482     0.370854918     C.3   1  noname    0.070795
    3   N3        -1.049043797    -0.082084405     0.196960763   N.pl3   1  noname   -0.305167
    4   C4        -0.751456368     1.221333460    -0.396368885     C.3   1  noname    0.170766
    5   C5        -0.855074067     2.370421932     0.599779873     C.3   1  noname   -0.680432
    6   C6        -0.161333236    -1.125038111     0.248747945     C.2   1  noname    0.528595
    7   O7        -0.517607848    -2.293480335     0.454415476     O.2   1  noname   -0.556986
    8   C8         1.293964514    -0.809382553     0.083009142     C.2   1  noname   -0.287701
    9   C9         1.980632570     0.076120991     0.918368375     C.2   1  noname    0.245704
   10   C10        3.355428318     0.224244331     0.742418254     C.2   1  noname   -0.579365
   11   C11        3.988196123    -0.510332726    -0.261236437     C.2   1  noname    0.474975
   12   N12        3.346489209    -1.376217833    -1.067807527     N.2   1  noname   -0.646146
   13   C13        2.025692809    -1.522037792    -0.875537687     C.2   1  noname    0.347720
   14   H14       -3.004971101    -0.318188274    -1.733384624       H   1  noname    0.136866
   15   H15       -4.142777488    -1.229949816    -0.730960622       H   1  noname    0.142933
   16   H16       -2.572965315    -1.942605223    -1.150649747       H   1  noname    0.183759
   17   H17       -2.526381308    -1.145905153     1.188973157       H   1  noname    0.096019
   18   H18       -2.986666899     0.484407229     0.678869354       H   1  noname    0.085902
   19   H19       -1.449713476     1.384347657    -1.227480736       H   1  noname    0.080316
   20   H20        0.249373676     1.184252996    -0.829658137       H   1  noname    0.051073
   21   H21       -0.120987737     2.256878872     1.400542065       H   1  noname    0.172097
   22   H22       -0.670353120     3.323539540     0.093630941       H   1  noname    0.179015
   23   H23       -1.848981841     2.417208673     1.052429109       H   1  noname    0.185641
   24   H24        1.454438998     0.615615506     1.702214493       H   1  noname    0.098147
   25   H25        3.931750348     0.892856068     1.376208688       H   1  noname    0.205291
   26   H26        5.059417241    -0.412727447    -0.428160095       H   1  noname    0.051592
   27   H27        1.518976049    -2.244168963    -1.513519394       H   1  noname    0.092877


@<TRIPOS>BOND
    1      1      2    1
    2      2      3    1
    3      3      4    1
    4      4      5    1
    5      3      6    1
    6      6      7    2
    7      6      8    1
    8      8      9    2
    9      9     10    1
   10     10     11    2
   11     11     12    1
   12     12     13    2
   13     13      8    1
   14      1     14    1
   15      1     15    1
   16      1     16    1
   17      2     17    1
   18      2     18    1
   19      4     19    1
   20      4     20    1
   21      5     21    1
   22      5     22    1
   23      5     23    1
   24      9     24    1
   25     10     25    1
   26     11     26    1
   27     13     27    1
#
#	File Created by: Spartan'20 Export
#

@<TRIPOS>MOLECULE
M0177
22 21
SMALL
USER_CHARGES


@<TRIPOS>ATOM
    1   C1        -1.010881362     2.223603784    -0.428896985     C.3   1  noname   -0.676252
    2   C2        -0.091194784     1.390900014     0.454200146     C.3   1  noname    0.209713
    3   N3         0.000273762    -0.000841426    -0.001750032     N.3   1  noname   -0.442506
    4   C4         1.250915114    -0.616974780     0.456047258     C.3   1  noname    0.221626
    5   C5         2.433515437    -0.236212325    -0.424524551     C.3   1  noname   -0.684684
    6   C6        -1.158438672    -0.775179319     0.457185243     C.3   1  noname    0.228467
    7   C7        -1.423552183    -1.986286800    -0.427233898     C.3   1  noname   -0.681570
    8   H8        -0.652089636     2.196821973    -1.460385621       H   1  noname    0.183864
    9   H9        -2.038658203     1.851260102    -0.417344401       H   1  noname    0.185092
   10   H10       -1.030594145     3.263705444    -0.087636028       H   1  noname    0.162654
   11   H11       -0.412782759     1.443343241     1.511291981       H   1  noname    0.000584
   12   H12        0.911538381     1.825399123     0.414821427       H   1  noname    0.077927
   13   H13        1.126123494    -1.702739277     0.416204224       H   1  noname    0.075188
   14   H14        1.455277760    -0.365230195     1.513640682       H   1  noname   -0.000608
   15   H15        2.627176727     0.839356496    -0.408701102       H   1  noname    0.187494
   16   H16        3.342506703    -0.742201008    -0.083925590       H   1  noname    0.163588
   17   H17        2.231794080    -0.529558327    -1.457163881       H   1  noname    0.185674
   18   H18       -2.035839300    -0.123167480     0.422095794       H   1  noname    0.075549
   19   H19       -1.039972480    -1.081663183     1.513432490       H   1  noname   -0.004307
   20   H20       -0.585411856    -2.689496491    -0.424048134       H   1  noname    0.186213
   21   H21       -2.311468980    -2.525588201    -0.080078575       H   1  noname    0.161959
   22   H22       -1.588237097    -1.659251365    -1.457230448       H   1  noname    0.184335


@<TRIPOS>BOND
    1      1      2    1
    2      2      3    1
    3      3      4    1
    4      4      5    1
    5      3      6    1
    6      6      7    1
    7      1      8    1
    8      1      9    1
    9      1     10    1
   10      2     11    1
   11      2     12    1
   12      4     13    1
   13      4     14    1
   14      5     15    1
   15      5     16    1
   16      5     17    1
   17      6     18    1
   18      6     19    1
   19      7     20    1
   20      7     21    1
   21      7     22    1
#
#	File Created by: Spartan'20 Export
#

@<TRIPOS>MOLECULE
M0178
33 32
SMALL
USER_CHARGES


@<TRIPOS>ATOM
    1   C1         2.702228269    -1.755081815    -0.059285528     C.3   1  noname   -0.445101
    2   C2         1.467025145    -1.234253036    -0.787715263     C.3   1  noname   -0.082184
    3   N3         0.220751528    -1.251489095    -0.003462461   N.pl3   1  noname   -0.373460
    4   C4        -0.307768831    -2.572423889     0.401794878     C.3   1  noname    0.222700
    5   C5        -1.714355534    -2.792072044    -0.130595520     C.3   1  noname   -0.618181
    6   S6        -0.000337374    -0.000127831     1.068883019       S   1  noname    1.320506
    7   O7         1.214523664     0.351500529     1.814831074     O.2   1  noname   -0.614729
    8   O8        -1.215395396    -0.351708706     1.814383584     O.2   1  noname   -0.614184
    9   N9        -0.220921548     1.251251564    -0.003447112   N.pl3   1  noname   -0.383062
   10   C10       -1.466579148     1.234123360    -0.788478916     C.3   1  noname   -0.050670
   11   C11       -2.702237332     1.755352695    -0.060488861     C.3   1  noname   -0.452692
   12   C12        0.308027826     2.572133626     0.401828671     C.3   1  noname    0.219200
   13   C13        1.714025318     2.792269817    -0.132490786     C.3   1  noname   -0.620191
   14   H14        2.916517494    -1.138591337     0.814174600       H   1  noname    0.158831
   15   H15        2.567299631    -2.789656186     0.267225441       H   1  noname    0.110050
   16   H16        3.565107525    -1.728688234    -0.732089108       H   1  noname    0.135883
   17   H17        1.265978334    -1.829241848    -1.685815293       H   1  noname    0.114229
   18   H18        1.618576122    -0.202951441    -1.116882811       H   1  noname    0.096464
   19   H19        0.375255404    -3.319086147    -0.013461703       H   1  noname    0.087237
   20   H20       -0.285808114    -2.686581356     1.489228159       H   1  noname    0.048240
   21   H21       -2.067547628    -3.797955013     0.123196672       H   1  noname    0.145186
   22   H22       -2.395271005    -2.063142493     0.310752199       H   1  noname    0.206294
   23   H23       -1.729509241    -2.685074479    -1.219063826       H   1  noname    0.148285
   24   H24       -1.264770164     1.829160824    -1.686732480       H   1  noname    0.106769
   25   H25       -1.618073464     0.202444520    -1.117693586       H   1  noname    0.088655
   26   H26       -3.564300882     1.729991147    -0.734432577       H   1  noname    0.135424
   27   H27       -2.566902112     2.790138480     0.267067705       H   1  noname    0.110580
   28   H28       -2.918103766     1.138195652     0.812486438       H   1  noname    0.158940
   29   H29        0.288199146     2.685184512     1.489576097       H   1  noname    0.050394
   30   H30       -0.376213028     3.319030250    -0.011197169       H   1  noname    0.087460
   31   H31        1.725614849     2.693585299    -1.220904572       H   1  noname    0.149196
   32   H32        2.396468601     2.059605670     0.300499307       H   1  noname    0.207522
   33   H33        2.068495714     3.794157005     0.128309728       H   1  noname    0.146408


@<TRIPOS>BOND
    1      1      2    1
    2      2      3    1
    3      3      4    1
    4      4      5    1
    5      3      6    1
    6      6      7    2
    7      6      8    2
    8      6      9    1
    9      9     10    1
   10     10     11    1
   11      9     12    1
   12     12     13    1
   13      1     14    1
   14      1     15    1
   15      1     16    1
   16      2     17    1
   17      2     18    1
   18      4     19    1
   19      4     20    1
   20      5     21    1
   21      5     22    1
   22      5     23    1
   23     10     24    1
   24     10     25    1
   25     11     26    1
   26     11     27    1
   27     11     28    1
   28     12     29    1
   29     12     30    1
   30     13     31    1
   31     13     32    1
   32     13     33    1
#
#	File Created by: Spartan'20 Export
#

@<TRIPOS>MOLECULE
M0179
52 53
SMALL
USER_CHARGES


@<TRIPOS>ATOM
    1   C1         6.978588718     0.357257656     0.622335784     C.3   1  noname   -0.568812
    2   C2         6.056923991     0.134156143    -0.572537606     C.3   1  noname    0.161797
    3   N3         4.841506974    -0.624718299    -0.244563386   N.pl3   1  noname   -0.447973
    4   C4         4.827656948    -2.011069867    -0.698448236     C.3   1  noname    0.274091
    5   C5         5.999376952    -2.816384987    -0.150534538     C.3   1  noname   -0.652888
    6   C6         3.634652455     0.084261766    -0.226604150     C.2   1  noname    0.389397
    7   C7         3.599599003     1.383964100     0.329382360     C.2   1  noname   -0.327667
    8   C8         2.417854921     2.106495248     0.393477604     C.2   1  noname   -0.134800
    9   C9         1.207868729     1.549579196    -0.046997468     C.2   1  noname   -0.017184
   10   C10        1.232132956     0.265527077    -0.607315903     C.2   1  noname   -0.090382
   11   C11        2.422419020    -0.452420233    -0.705199526     C.2   1  noname   -0.355396
   12   C12       -0.023601738     2.382079004     0.021655733     C.2   1  noname    0.440617
   13   O13        0.056502875     3.616987564    -0.048890178     O.2   1  noname   -0.540329
   14   C14       -1.344095804     1.721056410     0.180733048     C.2   1  noname   -0.046804
   15   C15       -1.514853506     0.484305520     0.820041711     C.2   1  noname   -0.069718
   16   C16       -2.780658097    -0.063051267     0.996824371     C.2   1  noname   -0.516879
   17   C17       -3.941363660     0.596075068     0.527226563     C.2   1  noname    0.719918
   18   C18       -3.755370526     1.847648579    -0.110450226     C.2   1  noname   -0.481073
   19   C19       -2.489898426     2.395372993    -0.263119433     C.2   1  noname   -0.088241
   20   N20       -5.205293344     0.066568913     0.738161379   N.pl3   1  noname   -0.700263
   21   C21       -5.358464384    -1.311943127     1.189991759     C.3   1  noname    0.265137
   22   C22       -4.985823247    -2.369547523     0.149050181     C.3   1  noname   -0.549839
   23   C23       -6.386971231     0.754629532     0.239541659     C.3   1  noname    0.248596
   24   C24       -6.654448790     0.569804331    -1.253927753     C.3   1  noname   -0.517496
   25   H25        7.861197757     0.930541431     0.319688578       H   1  noname    0.140603
   26   H26        7.311964109    -0.593505966     1.041318618       H   1  noname    0.162470
   27   H27        6.465275075     0.909582722     1.412478621       H   1  noname    0.157181
   28   H28        6.597140252    -0.401606286    -1.364173734       H   1  noname    0.068141
   29   H29        5.763330620     1.096729124    -1.004151211       H   1  noname    0.053412
   30   H30        3.907402675    -2.467931085    -0.329648167       H   1  noname    0.063583
   31   H31        4.808825770    -2.077876904    -1.800421537       H   1  noname    0.006899
   32   H32        5.898383848    -3.862165133    -0.457568972       H   1  noname    0.153374
   33   H33        6.962394802    -2.456838470    -0.519218905       H   1  noname    0.192130
   34   H34        6.005659399    -2.774255005     0.941212361       H   1  noname    0.183041
   35   H35        4.507091827     1.820341686     0.735578066       H   1  noname    0.192470
   36   H36        2.407999976     3.110902174     0.809993326       H   1  noname    0.168452
   37   H37        0.320387353    -0.165454108    -1.014177218       H   1  noname    0.132391
   38   H38        2.402395592    -1.412989942    -1.208804869       H   1  noname    0.141118
   39   H39       -0.653481274    -0.044442074     1.221115802       H   1  noname    0.134293
   40   H40       -2.857557330    -1.011728480     1.516944253       H   1  noname    0.228079
   41   H41       -4.602202872     2.400912871    -0.500601006       H   1  noname    0.219268
   42   H42       -2.369662442     3.366050252    -0.738836187       H   1  noname    0.166406
   43   H43       -4.771962814    -1.457190203     2.104469332       H   1  noname    0.023129
   44   H44       -6.405073890    -1.434782945     1.482747810       H   1  noname    0.063801
   45   H45       -5.646032627    -2.309022454    -0.718297809       H   1  noname    0.165993
   46   H46       -5.073819519    -3.373675250     0.578701844       H   1  noname    0.123048
   47   H47       -3.959335986    -2.231011044    -0.195303225       H   1  noname    0.155313
   48   H48       -7.239938727     0.384171192     0.816735791       H   1  noname    0.055277
   49   H49       -6.298334070     1.818327877     0.482181398       H   1  noname    0.032569
   50   H50       -6.878790465    -0.474761355    -1.481121484       H   1  noname    0.158806
   51   H51       -5.786722255     0.868500529    -1.845425829       H   1  noname    0.146815
   52   H52       -7.510775570     1.176543042    -1.565249397       H   1  noname    0.118125


@<TRIPOS>BOND
    1      1      2    1
    2      2      3    1
    3      3      4    1
    4      4      5    1
    5      3      6    1
    6      6      7    2
    7      7      8    1
    8      8      9    2
    9      9     10    1
   10     10     11    2
   11      9     12    1
   12     12     13    2
   13     12     14    1
   14     14     15    2
   15     15     16    1
   16     16     17    2
   17     17     18    1
   18     18     19    2
   19     17     20    1
   20     20     21    1
   21     21     22    1
   22     20     23    1
   23     23     24    1
   24     11      6    1
   25     19     14    1
   26      1     25    1
   27      1     26    1
   28      1     27    1
   29      2     28    1
   30      2     29    1
   31      4     30    1
   32      4     31    1
   33      5     32    1
   34      5     33    1
   35      5     34    1
   36      7     35    1
   37      8     36    1
   38     10     37    1
   39     11     38    1
   40     15     39    1
   41     16     40    1
   42     18     41    1
   43     19     42    1
   44     21     43    1
   45     21     44    1
   46     22     45    1
   47     22     46    1
   48     22     47    1
   49     23     48    1
   50     23     49    1
   51     24     50    1
   52     24     51    1
   53     24     52    1
#
#	File Created by: Spartan'20 Export
#

@<TRIPOS>MOLECULE
M0180
28 28
SMALL
USER_CHARGES


@<TRIPOS>ATOM
    1   C1        -2.397719582     1.648855142    -0.317092523     C.3   1  noname   -0.489297
    2   C2        -1.854609070     1.066589999     0.988056728     C.3   1  noname    0.241469
    3   N3        -1.011934238    -0.112606106     0.822348813   N.pl3   1  noname   -0.668850
    4   C4        -1.644867426    -1.424512460     0.903002673     C.3   1  noname    0.252993
    5   C5        -2.080732517    -2.003777635    -0.442844863     C.3   1  noname   -0.481776
    6   C6         0.283658351     0.012325930     0.358513226     C.2   1  noname    0.698854
    7   C7         1.090241122    -1.124084391     0.101240087     C.2   1  noname   -0.475117
    8   C8         2.410396102    -1.001554045    -0.310724585     C.2   1  noname   -0.056908
    9   C9         2.960184084     0.266462227    -0.476286970     C.2   1  noname   -0.082460
   10   C10        2.203035104     1.410570564    -0.241771489     C.2   1  noname   -0.067974
   11   C11        0.883352935     1.282519765     0.170089119     C.2   1  noname   -0.465641
   12   N12        4.343383511     0.397718615    -0.915751435       N   1  noname    0.771278
   13   O13        4.989741942    -0.645515813    -1.123058745       O   1  noname   -0.475095
   14   O14        4.802270942     1.545753561    -1.057470522     O.2   1  noname   -0.474300
   15   H15       -2.961358941     2.566163782    -0.117216753       H   1  noname    0.114903
   16   H16       -1.586259983     1.887003457    -1.008500302       H   1  noname    0.140902
   17   H17       -3.066325312     0.939406353    -0.809374809       H   1  noname    0.152399
   18   H18       -1.291919279     1.826297520     1.541524237       H   1  noname    0.026907
   19   H19       -2.684926042     0.774262281     1.637940702       H   1  noname    0.063030
   20   H20       -2.513089748    -1.317716030     1.560008891       H   1  noname    0.058374
   21   H21       -0.963694664    -2.113724665     1.413821251       H   1  noname    0.024185
   22   H22       -1.239006021    -2.061165972    -1.136611571       H   1  noname    0.139150
   23   H23       -2.855294457    -1.383429821    -0.898924981       H   1  noname    0.150255
   24   H24       -2.486283983    -3.011988062    -0.307977346       H   1  noname    0.112027
   25   H25        0.689615077    -2.124457030     0.214999125       H   1  noname    0.222857
   26   H26        3.015735468    -1.881068771    -0.503354945       H   1  noname    0.171175
   27   H27        2.648205847     2.389941548    -0.381811512       H   1  noname    0.173800
   28   H28        0.318200777     2.191730059     0.337228501       H   1  noname    0.222859


@<TRIPOS>BOND
    1      1      2    1
    2      2      3    1
    3      3      4    1
    4      4      5    1
    5      3      6    1
    6      6      7    2
    7      7      8    1
    8      8      9    2
    9      9     10    1
   10     10     11    2
   11      9     12    1
   12     12     13    1
   13     12     14    2
   14     11      6    1
   15      1     15    1
   16      1     16    1
   17      1     17    1
   18      2     18    1
   19      2     19    1
   20      4     20    1
   21      4     21    1
   22      5     22    1
   23      5     23    1
   24      5     24    1
   25      7     25    1
   26      8     26    1
   27     10     27    1
   28     11     28    1
#
#	File Created by: Spartan'20 Export
#

@<TRIPOS>MOLECULE
M0181
25 25
SMALL
USER_CHARGES


@<TRIPOS>ATOM
    1   C1        -0.787078601    -2.385585313     0.366889988     C.3   1  noname   -0.581312
    2   C2        -0.496671859    -1.261246484     1.360523634     C.3   1  noname    0.308152
    3   N3         0.234814812    -0.130632855     0.802865367   N.pl3   1  noname   -0.868995
    4   C4         1.688964392    -0.128038158     0.905611735     C.3   1  noname    0.307740
    5   C5         2.414548720    -0.735004819    -0.295989218     C.3   1  noname   -0.589887
    6   C6        -0.404881530     0.772403427    -0.023871585     C.2   1  noname    1.119312
    7   C7         0.285043911     1.815716030    -0.679017002     C.2   1  noname   -0.886161
    8   C8        -0.418901803     2.732046851    -1.452878652     C.2   1  noname    0.521369
    9   N9        -1.749760768     2.717628114    -1.649571749     N.2   1  noname   -0.735815
   10   C10       -2.400572964     1.718228647    -1.027514384     C.2   1  noname    0.522037
   11   C11       -1.801432024     0.748525430    -0.230987307     C.2   1  noname   -0.890010
   12   H12       -1.388519261    -3.166437550     0.844087345       H   1  noname    0.129401
   13   H13        0.141662364    -2.839295633     0.012659810       H   1  noname    0.173869
   14   H14       -1.334401544    -2.009059994    -0.500875345       H   1  noname    0.169496
   15   H15        0.099102493    -1.645420005     2.193671259       H   1  noname    0.061790
   16   H16       -1.429834371    -0.893355769     1.799871467       H   1  noname    0.030534
   17   H17        2.025190291     0.901027457     1.072889049       H   1  noname    0.033733
   18   H18        1.946277163    -0.681916105     1.814174271       H   1  noname    0.061102
   19   H19        2.118007911    -0.238459459    -1.222805791       H   1  noname    0.171496
   20   H20        3.497967864    -0.629172630    -0.178021762       H   1  noname    0.130360
   21   H21        2.185578381    -1.798479488    -0.391055472       H   1  noname    0.177568
   22   H22        1.360177674     1.925406665    -0.603053054       H   1  noname    0.267617
   23   H23        0.124077654     3.532889169    -1.952346356       H   1  noname    0.048701
   24   H24       -3.478694518     1.690836462    -1.178279150       H   1  noname    0.049333
   25   H25       -2.430664386    -0.012603990     0.213022902       H   1  noname    0.268569


@<TRIPOS>BOND
    1      1      2    1
    2      2      3    1
    3      3      4    1
    4      4      5    1
    5      3      6    1
    6      6      7    2
    7      7      8    1
    8      8      9    2
    9      9     10    1
   10     10     11    2
   11     11      6    1
   12      1     12    1
   13      1     13    1
   14      1     14    1
   15      2     15    1
   16      2     16    1
   17      4     17    1
   18      4     18    1
   19      5     19    1
   20      5     20    1
   21      5     21    1
   22      7     22    1
   23      8     23    1
   24     10     24    1
   25     11     25    1
#
#	File Created by: Spartan'20 Export
#

@<TRIPOS>MOLECULE
M0182
16 16
SMALL
USER_CHARGES


@<TRIPOS>ATOM
    1   C1         0.578658988    -0.000494024    -2.144308266     C.3   1  noname   -0.431164
    2   C2        -0.686846387     0.000348230    -1.297882978     C.3   1  noname    0.099969
    3   N3        -0.387235570     0.000205629     0.125082106    N.am   1  noname   -0.429661
    4   C4        -0.158983536    -1.148561229     0.882315781     C.2   1  noname    0.737868
    5   O5        -0.241892946    -2.299225769     0.474764919     O.2   1  noname   -0.553405
    6   C6         0.197097537    -0.671168661     2.258158495     C.2   1  noname   -0.300649
    7   C7         0.196549021     0.671206317     2.258408375     C.2   1  noname   -0.300378
    8   C8        -0.159901595     1.148861798     0.882762009     C.2   1  noname    0.737627
    9   O9        -0.243718604     2.299640858     0.475685931     O.2   1  noname   -0.553381
   10   H10        0.324751484    -0.000325783    -3.208432913       H   1  noname    0.118331
   11   H11        1.176339065     0.889204798    -1.931575401       H   1  noname    0.140426
   12   H12        1.175021995    -0.891118216    -1.931619296       H   1  noname    0.140427
   13   H13       -1.293158243    -0.887824012    -1.492594432       H   1  noname    0.081623
   14   H14       -1.291952978     0.889347754    -1.492523811       H   1  noname    0.081684
   15   H15        0.408196112    -1.355790597     3.070624658       H   1  noname    0.215340
   16   H16        0.407075655     1.355692907     3.071134824       H   1  noname    0.215343


@<TRIPOS>BOND
    1      1      2    1
    2      2      3    1
    3      3      4    am
    4      4      5    2
    5      4      6    1
    6      6      7    2
    7      7      8    1
    8      8      9    2
    9      8      3    am
   10      1     10    1
   11      1     11    1
   12      1     12    1
   13      2     13    1
   14      2     14    1
   15      6     15    1
   16      7     16    1
#
#	File Created by: Spartan'20 Export
#

@<TRIPOS>MOLECULE
M0183
13 12
SMALL
USER_CHARGES


@<TRIPOS>ATOM
    1   C1         1.850577833    -0.066374878    -0.252884895     C.3   1  noname   -0.775318
    2   C2         0.473311642    -0.274608808     0.356529066     C.3   1  noname    0.368312
    3   N3        -0.568711894     0.201175456    -0.549286204     N.3   1  noname   -0.664856
    4   C4        -1.901520427     0.069284245     0.031017039     C.3   1  noname   -0.342713
    5   H5         2.054741416     0.998365626    -0.403495244       H   1  noname    0.192543
    6   H6         1.913677190    -0.565850074    -1.221470210       H   1  noname    0.205750
    7   H7         2.629808452    -0.465271850     0.401985475       H   1  noname    0.185016
    8   H8         0.425618198     0.205451515     1.351710752       H   1  noname    0.001744
    9   H9         0.297672263    -1.344130262     0.519498497       H   1  noname    0.052072
   10   H10       -0.394299981     1.186888976    -0.749961237       H   1  noname    0.370316
   11   H11       -2.640148017     0.489302186    -0.656194248       H   1  noname    0.154898
   12   H12       -2.015686462     0.559294340     1.013089946       H   1  noname    0.102939
   13   H13       -2.125040215    -0.993526473     0.159461262       H   1  noname    0.149296


@<TRIPOS>BOND
    1      1      2    1
    2      2      3    1
    3      3      4    1
    4      1      5    1
    5      1      6    1
    6      1      7    1
    7      2      8    1
    8      2      9    1
    9      3     10    1
   10      4     11    1
   11      4     12    1
   12      4     13    1
#
#	File Created by: Spartan'20 Export
#

@<TRIPOS>MOLECULE
M0184
15 14
SMALL
USER_CHARGES


@<TRIPOS>ATOM
    1   C1         2.086671716    -0.478192108    -0.046218422     C.3   1  noname   -0.493339
    2   C2         1.222899262     0.723061878     0.319395039     C.3   1  noname    0.245903
    3   N3        -0.128051247     0.631848407    -0.215374241   N.pl3   1  noname   -0.801037
    4   C4        -1.069083997    -0.149312485     0.395173369     C.2   1  noname    0.963591
    5   O5        -0.848783468    -0.734419273     1.458450762     O.2   1  noname   -0.639022
    6   C6        -2.405864189    -0.243900913    -0.312434869     C.3   1  noname   -0.879765
    7   H7         3.090842817    -0.373226817     0.375870872       H   1  noname    0.116405
    8   H8         2.178014684    -0.577995986    -1.132152750       H   1  noname    0.133294
    9   H9         1.635783275    -1.387532664     0.353528799       H   1  noname    0.163118
   10   H10        1.129617681     0.802548422     1.405117638       H   1  noname    0.065957
   11   H11        1.663106114     1.653981620    -0.049563819       H   1  noname    0.038261
   12   H12       -0.314114992     0.992512028    -1.140675606       H   1  noname    0.396940
   13   H13       -3.194309947    -0.049252962     0.416730944       H   1  noname    0.239454
   14   H14       -2.540380697    -1.264436586    -0.681126132       H   1  noname    0.240497
   15   H15       -2.506347012     0.454317438    -1.146721585       H   1  noname    0.209743


@<TRIPOS>BOND
    1      1      2    1
    2      2      3    1
    3      3      4    1
    4      4      5    2
    5      4      6    1
    6      1      7    1
    7      1      8    1
    8      1      9    1
    9      2     10    1
   10      2     11    1
   11      3     12    1
   12      6     13    1
   13      6     14    1
   14      6     15    1
#
#	File Created by: Spartan'20 Export
#

@<TRIPOS>MOLECULE
M0185
16 15
SMALL
USER_CHARGES


@<TRIPOS>ATOM
    1   C1        -1.704007209     0.798667815     0.439590438     C.3   1  noname   -0.638675
    2   C2        -0.941651029     0.357591310    -0.811580961     C.3   1  noname    0.432447
    3   N3        -0.179943772    -0.889338911    -0.705727083     N.3   1  noname   -0.901869
    4   C4         0.832432739    -0.923304566     0.353220537     C.3   1  noname    0.407602
    5   C5         1.979228138     0.034827579     0.061413607     C.3   1  noname   -0.598011
    6   H6        -1.028942737     1.030454428     1.266782189       H   1  noname    0.175223
    7   H7        -2.296252237     1.696001594     0.233060992       H   1  noname    0.133154
    8   H8        -2.388859743     0.011718651     0.771402784       H   1  noname    0.155557
    9   H9        -0.255024415     1.150803377    -1.124860082       H   1  noname    0.015769
   10   H10       -1.648142599     0.223928582    -1.638747617       H   1  noname    0.002933
   11   H11       -0.839224537    -1.652200408    -0.546857898       H   1  noname    0.358888
   12   H12        1.222071897    -1.946845373     0.378819491       H   1  noname    0.011584
   13   H13        0.429557779    -0.715679843     1.358788203       H   1  noname   -0.021938
   14   H14        1.663518836     1.079441257     0.123961683       H   1  noname    0.168714
   15   H15        2.788300925    -0.108357935     0.784279048       H   1  noname    0.125993
   16   H16        2.366937963    -0.147707557    -0.943545331       H   1  noname    0.172631


@<TRIPOS>BOND
    1      1      2    1
    2      2      3    1
    3      3      4    1
    4      4      5    1
    5      1      6    1
    6      1      7    1
    7      1      8    1
    8      2      9    1
    9      2     10    1
   10      3     11    1
   11      4     12    1
   12      4     13    1
   13      5     14    1
   14      5     15    1
   15      5     16    1
#
#	File Created by: Spartan'20 Export
#

@<TRIPOS>MOLECULE
M0186
9 8
SMALL
USER_CHARGES


@<TRIPOS>ATOM
    1   C1        -0.906514912    -0.160473052    -0.057481861     C.3   1  noname   -0.560425
    2   C2         0.599861483    -0.292871239     0.093773054     C.3   1  noname    0.363523
    3   O3         1.301153272     0.814251744    -0.473838235     O.3   1  noname   -0.704233
    4   H4        -1.420170953    -1.042299444     0.336700005       H   1  noname    0.130906
    5   H5        -1.167202015    -0.042627429    -1.111217014       H   1  noname    0.163506
    6   H6        -1.275327158     0.714178284     0.487467694       H   1  noname    0.140811
    7   H7         0.869659502    -0.427659084     1.150674247       H   1  noname   -0.012562
    8   H8         0.963481457    -1.166538372    -0.450881744       H   1  noname    0.053322
    9   H9         1.035059325     1.604038592     0.024803854       H   1  noname    0.425152


@<TRIPOS>BOND
    1      1      2    1
    2      2      3    1
    3      1      4    1
    4      1      5    1
    5      1      6    1
    6      2      7    1
    7      2      8    1
    8      3      9    1
#
#	File Created by: Spartan'20 Export
#

@<TRIPOS>MOLECULE
M0187
23 22
SMALL
USER_CHARGES


@<TRIPOS>ATOM
    1   C1         4.036810929     0.404195291    -0.799411383     C.3   1  noname   -0.530487
    2   C2         3.433476583    -0.736769040    -0.003761190     C.3   1  noname    0.257280
    3   O3         2.041610696    -0.924039952    -0.345769924     O.3   1  noname   -0.511549
    4   C4         1.172512489    -0.085866920     0.296875952     C.2   1  noname    0.916248
    5   O5         1.533012617     0.753138145     1.118424576     O.2   1  noname   -0.637494
    6   C6        -0.196259610    -0.352745803    -0.129300279     C.2   1  noname   -0.705764
    7   C7        -1.190835774     0.387518323     0.423717111     C.2   1  noname    0.177503
    8   N8        -2.517900056     0.354549178     0.112700193   N.pl3   1  noname   -0.007147
    9   C9        -3.475572120     0.857066259     1.084289287     C.3   1  noname   -0.495101
   10   C10       -2.998751283    -0.670428253    -0.793363758     C.3   1  noname   -0.506924
   11   H11        3.898433721     0.234042573    -1.869752422       H   1  noname    0.156637
   12   H12        3.560579338     1.345297771    -0.521061648       H   1  noname    0.168319
   13   H13        5.109196398     0.481881725    -0.595015279       H   1  noname    0.127107
   14   H14        3.900052412    -1.692395099    -0.252356984       H   1  noname    0.054100
   15   H15        3.516667780    -0.558807830     1.070675391       H   1  noname    0.054823
   16   H16       -0.357325109    -1.133040087    -0.860649629       H   1  noname    0.250264
   17   H17       -0.911678974     1.125328501     1.173372878       H   1  noname    0.145576
   18   H18       -3.796892517     0.079792843     1.791038500       H   1  noname    0.183959
   19   H19       -4.356972850     1.241877212     0.563688430       H   1  noname    0.175172
   20   H20       -3.019789958     1.674046517     1.646169322       H   1  noname    0.170812
   21   H21       -2.399860018    -0.657226594    -1.706697533       H   1  noname    0.179807
   22   H22       -2.944269130    -1.675133883    -0.349964951       H   1  noname    0.184944
   23   H23       -4.036245567    -0.452280879    -1.053846659       H   1  noname    0.191915


@<TRIPOS>BOND
    1      1      2    1
    2      2      3    1
    3      3      4    1
    4      4      5    2
    5      4      6    1
    6      6      7    2
    7      7      8    1
    8      8      9    1
    9      8     10    1
   10      1     11    1
   11      1     12    1
   12      1     13    1
   13      2     14    1
   14      2     15    1
   15      6     16    1
   16      7     17    1
   17      9     18    1
   18      9     19    1
   19      9     20    1
   20     10     21    1
   21     10     22    1
   22     10     23    1
#
#	File Created by: Spartan'20 Export
#

@<TRIPOS>MOLECULE
M0188
25 25
SMALL
USER_CHARGES


@<TRIPOS>ATOM
    1   C1         4.743624323     0.525646865     0.414054339     C.3   1  noname   -0.508058
    2   C2         4.126499820    -0.798410859     0.011288717     C.3   1  noname    0.259308
    3   O3         2.735484962    -0.861093241     0.415389572     O.3   1  noname   -0.525455
    4   C4         1.861070196    -0.258757408    -0.433748131     C.2   1  noname    0.910578
    5   O5         2.187331572     0.293493168    -1.476276537     O.2   1  noname   -0.607836
    6   C6         0.485145240    -0.379299733     0.087615143     C.2   1  noname   -0.441163
    7   C7        -0.537763204     0.161597140    -0.602438225     C.2   1  noname   -0.196664
    8   C8        -1.956212297     0.137615427    -0.244372665     C.2   1  noname    0.340679
    9   C9        -2.446348195    -0.499921900     0.909864031     C.2   1  noname   -0.275813
   10   C10       -3.808486223    -0.491088547     1.198077346     C.2   1  noname   -0.097720
   11   C11       -4.709350428     0.151476777     0.342804057     C.2   1  noname   -0.157146
   12   C12       -4.235636512     0.787634844    -0.805825768     C.2   1  noname   -0.073094
   13   C13       -2.871908179     0.779609043    -1.095654403     C.2   1  noname   -0.310157
   14   H14        4.267427396     1.343399630    -0.129129170       H   1  noname    0.162549
   15   H15        5.812427159     0.527955576     0.179106576       H   1  noname    0.125128
   16   H16        4.623536131     0.688885480     1.487513669       H   1  noname    0.153714
   17   H17        4.591002491    -1.637757479     0.531800671       H   1  noname    0.059761
   18   H18        4.188044346    -0.957313474    -1.067235489       H   1  noname    0.051044
   19   H19        0.361257707    -0.911397998     1.025404777       H   1  noname    0.200078
   20   H20       -0.278790733     0.673032288    -1.530634966       H   1  noname    0.175552
   21   H21       -1.762055669    -1.006381749     1.585960386       H   1  noname    0.174221
   22   H22       -4.171804851    -0.989211439     2.093921515       H   1  noname    0.134841
   23   H23       -5.772190312     0.154618627     0.571785682       H   1  noname    0.142099
   24   H24       -4.928076467     1.289690800    -1.477087512       H   1  noname    0.131642
   25   H25       -2.504228272     1.275978162    -1.992183614       H   1  noname    0.171913


@<TRIPOS>BOND
    1      1      2    1
    2      2      3    1
    3      3      4    1
    4      4      5    2
    5      4      6    1
    6      6      7    2
    7      7      8    1
    8      8      9    2
    9      9     10    1
   10     10     11    2
   11     11     12    1
   12     12     13    2
   13     13      8    1
   14      1     14    1
   15      1     15    1
   16      1     16    1
   17      2     17    1
   18      2     18    1
   19      6     19    1
   20      7     20    1
   21      9     21    1
   22     10     22    1
   23     11     23    1
   24     12     24    1
   25     13     25    1
#
#	File Created by: Spartan'20 Export
#

@<TRIPOS>MOLECULE
M0189
14 13
SMALL
USER_CHARGES


@<TRIPOS>ATOM
    1   C1        -2.002017535    -0.371742890     0.298004430     C.3   1  noname   -0.509457
    2   C2        -1.053756479    -0.307651448    -0.882031756     C.3   1  noname    0.206626
    3   O3         0.315435926    -0.525673631    -0.456719079     O.3   1  noname   -0.500501
    4   C4         0.950204202     0.569382244     0.036608448     C.2   1  noname    0.971533
    5   O5         0.440434695     1.674498148     0.121145047     O.2   1  noname   -0.603977
    6   C6         2.353011763     0.216248306     0.452012595     C.3   1  noname   -0.842396
    7   H7        -3.036732490    -0.287782729    -0.047665414       H   1  noname    0.132965
    8   H8        -1.888688030    -1.322297860     0.824178325       H   1  noname    0.153937
    9   H9        -1.800469776     0.447751292     0.988944553       H   1  noname    0.164394
   10   H10       -1.116226915     0.655173840    -1.393238365       H   1  noname    0.062012
   11   H11       -1.239714106    -1.112378686    -1.595456144       H   1  noname    0.073270
   12   H12        2.902939542    -0.185651618    -0.402071934       H   1  noname    0.229169
   13   H13        2.325972518    -0.557363463     1.222949639       H   1  noname    0.239143
   14   H14        2.849606684     1.107488495     0.833339657       H   1  noname    0.223284


@<TRIPOS>BOND
    1      1      2    1
    2      2      3    1
    3      3      4    1
    4      4      5    2
    5      4      6    1
    6      1      7    1
    7      1      8    1
    8      1      9    1
    9      2     10    1
   10      2     11    1
   11      6     12    1
   12      6     13    1
   13      6     14    1
#
#	File Created by: Spartan'20 Export
#

@<TRIPOS>MOLECULE
M0190
13 12
SMALL
USER_CHARGES


@<TRIPOS>ATOM
    1   C1        -1.032486754    -1.736921979    -0.185232557     C.3   1  noname   -0.515604
    2   C2        -1.036110167    -0.381921226    -0.862184226     C.3   1  noname    0.194602
    3   O3         0.233663621     0.298214464    -0.658109712     O.3   1  noname   -0.452389
    4   C4         0.349755016     0.942139371     0.522542367     C.2   1  noname    0.898809
    5   O5        -0.508758462     0.996945870     1.388676048     O.2   1  noname   -0.556782
    6   C6         1.652357062     1.574634404     0.624615390     C.1   1  noname   -0.229029
    7   C7         2.727641481     2.131996208     0.773513426     C.1   1  noname   -0.269605
    8   H8        -0.966829890    -1.620204495     0.897430500       H   1  noname    0.167019
    9   H9        -0.186839590    -2.332909718    -0.535416189       H   1  noname    0.161766
   10   H10       -1.956814816    -2.272829970    -0.420938614       H   1  noname    0.137423
   11   H11       -1.110083646    -0.466441076    -1.947307046       H   1  noname    0.082503
   12   H12       -1.839648066     0.255630228    -0.487984517       H   1  noname    0.067349
   13   H13        3.674154212     2.611667919     0.890395131       H   1  noname    0.313937


@<TRIPOS>BOND
    1      1      2    1
    2      2      3    1
    3      3      4    1
    4      4      5    2
    5      4      6    1
    6      6      7    3
    7      1      8    1
    8      1      9    1
    9      1     10    1
   10      2     11    1
   11      2     12    1
   12      7     13    1
#
#	File Created by: Spartan'20 Export
#

@<TRIPOS>MOLECULE
M0191
20 19
SMALL
USER_CHARGES


@<TRIPOS>ATOM
    1   C1         3.589861322     0.367449891     0.980047440     C.3   1  noname   -0.534711
    2   C2         3.062306009    -0.636919566    -0.023322477     C.3   1  noname    0.295021
    3   O3         1.679484774    -0.978667256     0.273528310     O.3   1  noname   -0.498497
    4   C4         0.772975693    -0.104186573    -0.187700419     C.2   1  noname    0.692062
    5   O5         1.003539640     0.909482390    -0.824970318     O.2   1  noname   -0.532950
    6   C6        -0.632597087    -0.569326729     0.210814261     C.2   1  noname    0.681615
    7   O7        -0.863145289    -1.475409993     0.992449440     O.2   1  noname   -0.558456
    8   O8        -1.549217875     0.176374740    -0.422813601     O.3   1  noname   -0.503262
    9   C9        -2.923389230    -0.173409223    -0.104942647     C.3   1  noname    0.418667
   10   C10       -3.800065697     0.768737231    -0.895696463     C.3   1  noname   -0.653856
   11   H11        3.468009175    -0.012112524     1.996869774       H   1  noname    0.167013
   12   H12        4.654253057     0.545990174     0.799983119       H   1  noname    0.131732
   13   H13        3.059695247     1.316241139     0.882855482       H   1  noname    0.172375
   14   H14        3.582783591    -1.593142821     0.042142954       H   1  noname    0.062908
   15   H15        3.116598407    -0.255527163    -1.045337820       H   1  noname    0.054371
   16   H16       -3.085648023    -1.221780928    -0.370601041       H   1  noname    0.031850
   17   H17       -3.066388931    -0.073217158     0.974230653       H   1  noname    0.034429
   18   H18       -3.619348323     0.652472747    -1.966403816       H   1  noname    0.191385
   19   H19       -4.852790670     0.552018655    -0.693204214       H   1  noname    0.156711
   20   H20       -3.596915790     1.804932968    -0.617928618       H   1  noname    0.191593


@<TRIPOS>BOND
    1      1      2    1
    2      2      3    1
    3      3      4    1
    4      4      5    2
    5      4      6    1
    6      6      7    2
    7      6      8    1
    8      8      9    1
    9      9     10    1
   10      1     11    1
   11      1     12    1
   12      1     13    1
   13      2     14    1
   14      2     15    1
   15      9     16    1
   16      9     17    1
   17     10     18    1
   18     10     19    1
   19     10     20    1
#
#	File Created by: Spartan'20 Export
#

@<TRIPOS>MOLECULE
M0192
23 22
SMALL
USER_CHARGES


@<TRIPOS>ATOM
    1   C1         0.427589385    -0.000714507     3.421720447     C.3   1  noname   -0.684113
    2   C2        -0.652267399     0.000319446     2.363906608     C.3   1  noname    0.298884
    3   O3         0.023443446    -0.000123652     1.082697095     O.3   1  noname   -0.457494
    4   C4        -0.804246778     0.000361649     0.003775155     C.2   1  noname    0.644858
    5   O5        -2.022048132     0.001075588     0.101749933     O.2   1  noname   -0.605051
    6   C6        -0.015012269     0.000051189    -1.295679814     C.3   1  noname    0.770966
    7   C7         0.866776027    -1.254649842    -1.340643169     C.3   1  noname   -0.745013
    8   C8         0.866161201     1.255183887    -1.341239284     C.3   1  noname   -0.744567
    9   C9        -0.994555184    -0.000435480    -2.466788536     C.3   1  noname   -0.784016
   10   H10        1.057030161    -0.888227238     3.326671042       H   1  noname    0.194796
   11   H11       -0.025724123    -0.000421053     4.417190405       H   1  noname    0.175713
   12   H12        1.058574962     0.885722494     3.326834089       H   1  noname    0.194798
   13   H13       -1.293294516     0.884137712     2.425666904       H   1  noname    0.062620
   14   H14       -1.294797621    -0.882413392     2.425547950       H   1  noname    0.062669
   15   H15        0.256772010    -2.162506459    -1.284796407       H   1  noname    0.170663
   16   H16        1.579416875    -1.263178366    -0.512747674       H   1  noname    0.173532
   17   H17        1.423568198    -1.277261113    -2.283423836       H   1  noname    0.187471
   18   H18        1.578822020     1.264389138    -0.513397915       H   1  noname    0.173424
   19   H19        0.255729401     2.162736580    -1.285767516       H   1  noname    0.170564
   20   H20        1.422920176     1.277665618    -2.284018332       H   1  noname    0.187367
   21   H21       -1.637853600    -0.883466721    -2.438469090       H   1  noname    0.183142
   22   H22       -1.638290894     0.882274220    -2.438817715       H   1  noname    0.183256
   23   H23       -0.438713347    -0.000519699    -3.409970339       H   1  noname    0.185531


@<TRIPOS>BOND
    1      1      2    1
    2      2      3    1
    3      3      4    1
    4      4      5    2
    5      4      6    1
    6      6      7    1
    7      6      8    1
    8      6      9    1
    9      1     10    1
   10      1     11    1
   11      1     12    1
   12      2     13    1
   13      2     14    1
   14      7     15    1
   15      7     16    1
   16      7     17    1
   17      8     18    1
   18      8     19    1
   19      8     20    1
   20      9     21    1
   21      9     22    1
   22      9     23    1
#
#	File Created by: Spartan'20 Export
#

@<TRIPOS>MOLECULE
M0193
20 19
SMALL
USER_CHARGES


@<TRIPOS>ATOM
    1   C1         3.137916556    -0.325136435     0.990538294     C.3   1  noname   -0.650626
    2   C2         2.228228196     0.067193959    -0.151384429     C.3   1  noname    0.393484
    3   O3         0.878330633     0.066295452     0.374847877     O.3   1  noname   -0.525183
    4   C4        -0.083750188     0.387354059    -0.529665694     C.2   1  noname    0.697201
    5   O5         0.155092295     0.672049080    -1.693363159     O.2   1  noname   -0.595739
    6   C6        -1.459566174     0.297536121     0.093785148     C.3   1  noname    0.377744
    7   C7        -1.830778664    -1.181032839     0.266072638     C.3   1  noname   -0.614968
    8   C8        -2.480646320     1.047593146    -0.753115517     C.3   1  noname   -0.732193
    9   H9         4.177412134    -0.341564647     0.651012211       H   1  noname    0.156411
   10   H10        3.051875031     0.388733264     1.812397925       H   1  noname    0.184548
   11   H11        2.878373769    -1.318336657     1.363655975       H   1  noname    0.186443
   12   H12        2.282831547    -0.635757877    -0.987630436       H   1  noname    0.039084
   13   H13        2.455065414     1.064153249    -0.538760204       H   1  noname    0.033202
   14   H14       -1.389802124     0.752581733     1.089128824       H   1  noname    0.009424
   15   H15       -1.100758620    -1.698750053     0.892732594       H   1  noname    0.151356
   16   H16       -2.816471153    -1.269650038     0.732342630       H   1  noname    0.165300
   17   H17       -1.869297314    -1.676763982    -0.709258929       H   1  noname    0.169669
   18   H18       -2.207248938     2.100000645    -0.863351766       H   1  noname    0.172114
   19   H19       -2.538118203     0.611238159    -1.752972153       H   1  noname    0.195807
   20   H20       -3.468687877     0.992263661    -0.287011831       H   1  noname    0.186922


@<TRIPOS>BOND
    1      1      2    1
    2      2      3    1
    3      3      4    1
    4      4      5    2
    5      4      6    1
    6      6      7    1
    7      6      8    1
    8      1      9    1
    9      1     10    1
   10      1     11    1
   11      2     12    1
   12      2     13    1
   13      6     14    1
   14      7     15    1
   15      7     16    1
   16      7     17    1
   17      8     18    1
   18      8     19    1
   19      8     20    1
#
#	File Created by: Spartan'20 Export
#

@<TRIPOS>MOLECULE
M0194
14 13
SMALL
USER_CHARGES


@<TRIPOS>ATOM
    1   C1         0.699611476    -0.000423481    -2.226502173     C.3   1  noname   -0.636538
    2   C2        -0.429702151     0.000077033    -1.224822903     C.3   1  noname    0.291706
    3   O3         0.188691841    -0.000626747     0.093703712     O.3   1  noname   -0.473819
    4   C4        -0.676106699     0.000088980     1.111629894     C.2   1  noname    0.808390
    5   O5        -1.886921138     0.001114264     1.028682126     O.2   1  noname   -0.569815
    6   C6         0.100969114     0.000006307     2.451462156     C.3   1  noname    0.050228
    7   Cl7       -1.034909623    -0.001337075     3.796383809      Cl   1  noname   -0.049635
    8   Cl8        1.116833179    -1.455382308     2.513427913      Cl   1  noname   -0.051021
    9   Cl9        1.114566509     1.456884278     2.514123990      Cl   1  noname   -0.050732
   10   H10        1.323202164     0.886557225    -2.102212794       H   1  noname    0.189961
   11   H11        1.322660979    -0.887830159    -2.102701038       H   1  noname    0.190096
   12   H12        0.289494613     0.000011494    -3.240033153       H   1  noname    0.168489
   13   H13       -1.063725843     0.886144278    -1.306342099       H   1  noname    0.066343
   14   H14       -1.064664421    -0.885284090    -1.306799438       H   1  noname    0.066347


@<TRIPOS>BOND
    1      1      2    1
    2      2      3    1
    3      3      4    1
    4      4      5    2
    5      4      6    1
    6      6      7    1
    7      6      8    1
    8      6      9    1
    9      1     10    1
   10      1     11    1
   11      1     12    1
   12      2     13    1
   13      2     14    1
#
#	File Created by: Spartan'20 Export
#

@<TRIPOS>MOLECULE
M0195
18 18
SMALL
USER_CHARGES


@<TRIPOS>ATOM
    1   C1         2.843671932    -0.030652441     0.354335019     C.3   1  noname   -0.544488
    2   C2         2.034909440    -0.544815601    -0.819211214     C.3   1  noname    0.271852
    3   O3         0.705558339    -0.940978190    -0.392716859     O.3   1  noname   -0.540166
    4   C4        -0.190578334     0.071861120    -0.289674797     C.2   1  noname    0.899722
    5   O5         0.059807984     1.243255815    -0.540809042     O.2   1  noname   -0.582399
    6   C6        -1.507372271    -0.428869975     0.162595204     C.3   1  noname   -0.328034
    7   C7        -2.722962067     0.291888109    -0.380486682     C.3   1  noname   -0.367772
    8   C8        -2.317644881     0.505141584     1.036774165     C.3   1  noname   -0.300730
    9   H9         3.868526898     0.185878812     0.037512845       H   1  noname    0.136769
   10   H10        2.400077430     0.887450390     0.742947070       H   1  noname    0.165475
   11   H11        2.876559071    -0.779005428     1.149442630       H   1  noname    0.164333
   12   H12        1.943363486     0.208800606    -1.604013219       H   1  noname    0.047480
   13   H13        2.460794598    -1.458728196    -1.236962130       H   1  noname    0.063867
   14   H14       -1.576055787    -1.495401363     0.343693545       H   1  noname    0.190668
   15   H15       -2.523197183     1.092872683    -1.083841189       H   1  noname    0.185416
   16   H16       -3.599876232    -0.310936988    -0.589861951       H   1  noname    0.191567
   17   H17       -2.909390029     0.052619302     1.825061159       H   1  noname    0.175245
   18   H18       -1.846192394     1.449619761     1.285215446       H   1  noname    0.171195


@<TRIPOS>BOND
    1      1      2    1
    2      2      3    1
    3      3      4    1
    4      4      5    2
    5      4      6    1
    6      6      7    1
    7      7      8    1
    8      8      6    1
    9      1      9    1
   10      1     10    1
   11      1     11    1
   12      2     12    1
   13      2     13    1
   14      6     14    1
   15      7     15    1
   16      7     16    1
   17      8     17    1
   18      8     18    1
#
#	File Created by: Spartan'20 Export
#

@<TRIPOS>MOLECULE
M0196
14 13
SMALL
USER_CHARGES


@<TRIPOS>ATOM
    1   C1        -0.197358802     0.000125966    -2.329275778     C.3   1  noname   -0.609650
    2   C2         0.659336072    -0.000073299    -1.084933141     C.3   1  noname    0.354700
    3   O3        -0.250402917    -0.000014118     0.047539845     O.3   1  noname   -0.543090
    4   C4         0.357795841    -0.000049736     1.256991789     C.2   1  noname    0.935954
    5   O5         1.559124825    -0.000114577     1.433489738     O.2   1  noname   -0.612599
    6   C6        -0.726548573    -0.000079226     2.319958936     C.3   1  noname   -0.393246
    7   Cl7       -0.069754938     0.000714822     3.959392959      Cl   1  noname   -0.110595
    8   H8         0.442433587     0.000076007    -3.215947216       H   1  noname    0.152773
    9   H9        -0.833090429    -0.886778720    -2.359787415       H   1  noname    0.179725
   10   H10       -0.832807346     0.887238048    -2.359684518       H   1  noname    0.179725
   11   H11        1.298171616    -0.884363327    -1.020276604       H   1  noname    0.040705
   12   H12        1.298429708     0.884019520    -1.020152353       H   1  noname    0.040726
   13   H13       -1.352990120     0.883312164     2.186044701       H   1  noname    0.192439
   14   H14       -1.352338524    -0.884013526     2.186639057       H   1  noname    0.192435


@<TRIPOS>BOND
    1      1      2    1
    2      2      3    1
    3      3      4    1
    4      4      5    2
    5      4      6    1
    6      6      7    1
    7      1      8    1
    8      1      9    1
    9      1     10    1
   10      2     11    1
   11      2     12    1
   12      6     13    1
   13      6     14    1
#
#	File Created by: Spartan'20 Export
#

@<TRIPOS>MOLECULE
M0197
14 13
SMALL
USER_CHARGES


@<TRIPOS>ATOM
    1   C1        -0.705652188    -0.000001715    -2.207431515     C.3   1  noname   -0.651568
    2   C2         0.406688206     0.000028300    -1.185220276     C.3   1  noname    0.297085
    3   O3        -0.232587708     0.000068274     0.119912640     O.3   1  noname   -0.417833
    4   C4         0.621396510    -0.000012584     1.153477979     C.2   1  noname    0.805790
    5   O5         1.839110712    -0.000078464     1.070757406     O.2   1  noname   -0.633008
    6   C6        -0.081859446    -0.000000511     2.496530053     C.3   1  noname   -0.144849
    7   F7        -1.460748974    -0.000065778     2.374921741       F   1  noname   -0.223122
    8   H8        -1.332116814     0.886726693    -2.092426119       H   1  noname    0.192205
    9   H9        -0.281789567    -0.000038993    -3.215538731       H   1  noname    0.167841
   10   H10       -1.332137437    -0.886704071    -2.092369719       H   1  noname    0.192208
   11   H11        1.044975586     0.884119144    -1.261337160       H   1  noname    0.057989
   12   H12        1.044971304    -0.884068738    -1.261299481       H   1  noname    0.057995
   13   H13        0.234905755    -0.888756017     3.050038818       H   1  noname    0.149631
   14   H14        0.234844059     0.888784461     3.049984365       H   1  noname    0.149636


@<TRIPOS>BOND
    1      1      2    1
    2      2      3    1
    3      3      4    1
    4      4      5    2
    5      4      6    1
    6      6      7    1
    7      1      8    1
    8      1      9    1
    9      1     10    1
   10      2     11    1
   11      2     12    1
   12      6     13    1
   13      6     14    1
#
#	File Created by: Spartan'20 Export
#

@<TRIPOS>MOLECULE
M0198
24 24
SMALL
USER_CHARGES


@<TRIPOS>ATOM
    1   C1         2.582385509     1.084697503     1.107069549     C.3   1  noname   -0.507258
    2   C2         3.043531515    -0.102464962     0.286606182     C.3   1  noname    0.205533
    3   O3         1.947762135    -0.618339551    -0.513909155     O.3   1  noname   -0.498029
    4   C4         1.096264623    -1.443320220     0.141546863     C.2   1  noname    0.971451
    5   O5         1.240272180    -1.812258963     1.296905758     O.2   1  noname   -0.604298
    6   C6        -0.094400629    -1.774417256    -0.724664605     C.3   1  noname   -0.882068
    7   C7        -1.116947243    -0.670589435    -0.557417942     C.2   1  noname    0.488183
    8   C8        -1.757398104    -0.500127025     0.677314029     C.2   1  noname   -0.337110
    9   C9        -2.687458776     0.524575058     0.852103671     C.2   1  noname   -0.093914
   10   C10       -2.981236173     1.394387668    -0.201485660     C.2   1  noname   -0.177813
   11   C11       -2.341092608     1.232217965    -1.431224818     C.2   1  noname   -0.102800
   12   C12       -1.408985625     0.207209208    -1.606577287     C.2   1  noname   -0.321186
   13   H13        1.829014599     0.771880992     1.832117650       H   1  noname    0.163416
   14   H14        3.428432981     1.517738450     1.649559877       H   1  noname    0.130907
   15   H15        2.154988375     1.851188003     0.456727056       H   1  noname    0.156516
   16   H16        3.799226296     0.178070584    -0.448971491       H   1  noname    0.074735
   17   H17        3.427881745    -0.905318048     0.918798490       H   1  noname    0.063370
   18   H18       -0.495746141    -2.735895333    -0.391471242       H   1  noname    0.238518
   19   H19        0.215379940    -1.855709474    -1.770055217       H   1  noname    0.249875
   20   H20       -1.519658180    -1.172771586     1.499439200       H   1  noname    0.186702
   21   H21       -3.181540170     0.646703826     1.813207139       H   1  noname    0.139531
   22   H22       -3.708165896     2.191378325    -0.065220123       H   1  noname    0.143431
   23   H23       -2.563658210     1.906573936    -2.254921655       H   1  noname    0.139711
   24   H24       -0.908852143     0.084590335    -2.565476268       H   1  noname    0.172597


@<TRIPOS>BOND
    1      1      2    1
    2      2      3    1
    3      3      4    1
    4      4      5    2
    5      4      6    1
    6      6      7    1
    7      7      8    2
    8      8      9    1
    9      9     10    2
   10     10     11    1
   11     11     12    2
   12     12      7    1
   13      1     13    1
   14      1     14    1
   15      1     15    1
   16      2     16    1
   17      2     17    1
   18      6     18    1
   19      6     19    1
   20      8     20    1
   21      9     21    1
   22     10     22    1
   23     11     23    1
   24     12     24    1
#
#	File Created by: Spartan'20 Export
#

@<TRIPOS>MOLECULE
M0199
19 18
SMALL
USER_CHARGES


@<TRIPOS>ATOM
    1   C1        -2.737274330    -0.496182124     0.628869913     C.3   1  noname   -0.458506
    2   C2        -1.991934006    -0.734583765    -0.668257562     C.3   1  noname    0.157876
    3   O3        -0.562199795    -0.766187888    -0.444411875     O.3   1  noname   -0.430860
    4   C4         0.025088175     0.466912467    -0.389628515     C.2   1  noname    0.791442
    5   O5        -0.587667030     1.523388732    -0.515692124     O.2   1  noname   -0.604015
    6   N6         1.376343931     0.356397756    -0.210191462    N.am   1  noname   -0.096527
    7   C7         2.022121994    -0.900644081     0.129073777     C.3   1  noname   -0.490698
    8   C8         2.124371362     1.569715959     0.071988225     C.3   1  noname   -0.536195
    9   H9        -3.816902185    -0.557447494     0.459461629       H   1  noname    0.119745
   10   H10       -2.501733162     0.495649724     1.016808649       H   1  noname    0.159787
   11   H11       -2.459540287    -1.249698874     1.369924145       H   1  noname    0.140885
   12   H12       -2.218678068     0.036380109    -1.406749189       H   1  noname    0.073797
   13   H13       -2.213085689    -1.718527812    -1.087065182       H   1  noname    0.074848
   14   H14        3.049239642    -0.871513983    -0.244720263       H   1  noname    0.184449
   15   H15        2.050581957    -1.062355616     1.214526535       H   1  noname    0.176751
   16   H16        1.494858276    -1.727013733    -0.340907086       H   1  noname    0.170991
   17   H17        1.547684874     2.423369816    -0.278437973       H   1  noname    0.195841
   18   H18        2.314965716     1.679737970     1.147309660       H   1  noname    0.185388
   19   H19        3.083758624     1.532602836    -0.451901304       H   1  noname    0.185002


@<TRIPOS>BOND
    1      1      2    1
    2      2      3    1
    3      3      4    1
    4      4      5    2
    5      4      6    am
    6      6      7    1
    7      6      8    1
    8      1      9    1
    9      1     10    1
   10      1     11    1
   11      2     12    1
   12      2     13    1
   13      7     14    1
   14      7     15    1
   15      7     16    1
   16      8     17    1
   17      8     18    1
   18      8     19    1
#
#	File Created by: Spartan'20 Export
#

@<TRIPOS>MOLECULE
M0200
15 14
SMALL
USER_CHARGES


@<TRIPOS>ATOM
    1   C1        -0.414295434    -0.000020713    -2.765343235     C.3   1  noname   -0.578833
    2   C2         0.452263571     0.000030101    -1.527669450     C.3   1  noname    0.354607
    3   O3        -0.451224653     0.000049075    -0.394516637     O.3   1  noname   -0.523529
    4   C4         0.171495411     0.000017278     0.796586119     C.2   1  noname    1.049051
    5   O5         1.375078864    -0.000042672     0.984462728     O.2   1  noname   -0.661627
    6   O6        -0.780226436     0.000071876     1.748346095     O.3   1  noname   -0.401177
    7   C7        -0.248045274    -0.000007059     3.087392669     C.3   1  noname   -0.269344
    8   H8        -1.050490346     0.886572566    -2.788437689       H   1  noname    0.174958
    9   H9         0.217675558    -0.000033483    -3.657543327       H   1  noname    0.142046
   10   H10       -1.050457456    -0.886633296    -2.788391895       H   1  noname    0.174959
   11   H11        1.091693496    -0.884400573    -1.470898988       H   1  noname    0.032612
   12   H12        1.091676070     0.884480974    -1.470935810       H   1  noname    0.032610
   13   H13       -1.122694547    -0.000005476     3.733762877       H   1  noname    0.170920
   14   H14        0.358802075     0.890046323     3.256614781       H   1  noname    0.151375
   15   H15        0.358749102    -0.890124921     3.256571760       H   1  noname    0.151371


@<TRIPOS>BOND
    1      1      2    1
    2      2      3    1
    3      3      4    1
    4      4      5    2
    5      4      6    1
    6      6      7    1
    7      1      8    1
    8      1      9    1
    9      1     10    1
   10      2     11    1
   11      2     12    1
   12      7     13    1
   13      7     14    1
   14      7     15    1
#
#	File Created by: Spartan'20 Export
#

@<TRIPOS>MOLECULE
M0201
18 17
SMALL
USER_CHARGES


@<TRIPOS>ATOM
    1   C1         3.074021875     0.380040893    -0.250903762     C.3   1  noname   -0.502805
    2   C2         2.368621926    -0.741371993     0.482998849     C.3   1  noname    0.262727
    3   O3         1.049724636    -0.323856469     0.919828090     O.3   1  noname   -0.502853
    4   C4         0.104329306    -0.386651108    -0.035202975     C.2   1  noname    0.994459
    5   O5         0.252265773    -0.777212146    -1.180811225     O.2   1  noname   -0.648932
    6   O6        -1.043057668     0.057800619     0.506971005     O.3   1  noname   -0.470720
    7   C7        -2.167574170     0.042005252    -0.407226563     C.3   1  noname    0.326202
    8   C8        -3.348997694     0.584394759     0.363172772     C.3   1  noname   -0.600969
    9   H9         2.549135964     0.612674585    -1.179363076       H   1  noname    0.161330
   10   H10        4.096959129     0.079559320    -0.497432080       H   1  noname    0.125005
   11   H11        3.115400637     1.275034494     0.374180048       H   1  noname    0.154712
   12   H12        2.269574175    -1.632075612    -0.140463050       H   1  noname    0.052298
   13   H13        2.877256925    -1.001297545     1.412529846       H   1  noname    0.063485
   14   H14       -1.924231183     0.655070136    -1.278941147       H   1  noname    0.040138
   15   H15       -2.331530777    -0.983217249    -0.749680309       H   1  noname    0.037802
   16   H16       -4.235042923     0.596979953    -0.277895754       H   1  noname    0.151625
   17   H17       -3.149686764     1.602571185     0.703828984       H   1  noname    0.179583
   18   H18       -3.557169167    -0.040449075     1.234410346       H   1  noname    0.176913


@<TRIPOS>BOND
    1      1      2    1
    2      2      3    1
    3      3      4    1
    4      4      5    2
    5      4      6    1
    6      6      7    1
    7      7      8    1
    8      1      9    1
    9      1     10    1
   10      1     11    1
   11      2     12    1
   12      2     13    1
   13      7     14    1
   14      7     15    1
   15      8     16    1
   16      8     17    1
   17      8     18    1
#
#	File Created by: Spartan'20 Export
#

@<TRIPOS>MOLECULE
M0202
21 20
SMALL
USER_CHARGES


@<TRIPOS>ATOM
    1   C1        -0.410504138    -0.000179138     2.865989643     C.3   1  noname   -0.633940
    2   C2         0.371743151     0.000347288     1.567966975     C.3   1  noname    0.325534
    3   O3        -0.590685290    -0.000002352     0.517966298     O.3   1  noname   -0.555574
    4   C4        -0.095800742    -0.000019112    -0.836844133     C.3   1  noname    1.022077
    5   C5        -1.373988983     0.000115154    -1.663188418     C.3   1  noname   -0.840411
    6   C6         0.719325661    -1.259010730    -1.122931537     C.3   1  noname   -0.720741
    7   C7         0.719627673     1.258771211    -1.122969454     C.3   1  noname   -0.720694
    8   H8        -1.046785814     0.885369047     2.921706872       H   1  noname    0.181736
    9   H9        -1.045654093    -0.886556864     2.921647745       H   1  noname    0.181707
   10   H10        0.269983195     0.000222266     3.722541232       H   1  noname    0.147078
   11   H11        1.018287454    -0.886116524     1.514416003       H   1  noname    0.021580
   12   H12        1.017327824     0.887494639     1.514606880       H   1  noname    0.021569
   13   H13       -1.144207449     0.000072427    -2.732740382       H   1  noname    0.190325
   14   H14       -1.968458446     0.886705673    -1.428170624       H   1  noname    0.201564
   15   H15       -1.968672895    -0.886318800    -1.428143726       H   1  noname    0.201582
   16   H16        1.669096328    -1.262711560    -0.581735498       H   1  noname    0.146422
   17   H17        0.147530427    -2.144940006    -0.833095305       H   1  noname    0.172885
   18   H18        0.947029304    -1.324671156    -2.191028253       H   1  noname    0.169024
   19   H19        0.148066599     2.144841722    -0.833128843       H   1  noname    0.172877
   20   H20        0.947327672     1.324365285    -2.191069376       H   1  noname    0.169035
   21   H21        1.669412560     1.262221532    -0.581796099       H   1  noname    0.146363


@<TRIPOS>BOND
    1      1      2    1
    2      2      3    1
    3      3      4    1
    4      4      5    1
    5      4      6    1
    6      4      7    1
    7      1      8    1
    8      1      9    1
    9      1     10    1
   10      2     11    1
   11      2     12    1
   12      5     13    1
   13      5     14    1
   14      5     15    1
   15      6     16    1
   16      6     17    1
   17      6     18    1
   18      7     19    1
   19      7     20    1
   20      7     21    1
#
#	File Created by: Spartan'20 Export
#

@<TRIPOS>MOLECULE
M0203
13 12
SMALL
USER_CHARGES


@<TRIPOS>ATOM
    1   C1        -1.682966707    -0.240925935    -0.492079520     C.3   1  noname   -0.446663
    2   C2        -0.988815213     0.133195035     0.804794756     C.3   1  noname    0.159908
    3   O3         0.348378237    -0.380338059     0.857127247     O.3   1  noname   -0.368506
    4   C4         1.248933552     0.321776728     0.101594904     C.2   1  noname    0.206530
    5   C5         2.387997168    -0.223378043    -0.335830141     C.2   1  noname   -0.675084
    6   H6        -1.689730542    -1.326979774    -0.608722183       H   1  noname    0.153759
    7   H7        -1.164161650     0.193976557    -1.350949399       H   1  noname    0.132741
    8   H8        -2.716318984     0.120028801    -0.492675601       H   1  noname    0.114827
    9   H9        -1.495132089    -0.309286681     1.665702881       H   1  noname    0.076539
   10   H10       -0.970027601     1.223141853     0.944359135       H   1  noname    0.048663
   11   H11        0.994651872     1.368733620    -0.074991029       H   1  noname    0.116283
   12   H12        3.107256619     0.384400148    -0.869293769       H   1  noname    0.218093
   13   H13        2.619935339    -1.264344253    -0.149037281       H   1  noname    0.262911


@<TRIPOS>BOND
    1      1      2    1
    2      2      3    1
    3      3      4    1
    4      4      5    2
    5      1      6    1
    6      1      7    1
    7      1      8    1
    8      2      9    1
    9      2     10    1
   10      4     11    1
   11      5     12    1
   12      5     13    1
#
#	File Created by: Spartan'20 Export
#

@<TRIPOS>MOLECULE
M0204
11 10
SMALL
USER_CHARGES


@<TRIPOS>ATOM
    1   C1        -1.273888791     0.472370185    -0.075055025     C.3   1  noname   -0.565036
    2   C2        -0.371934293    -0.728449370     0.123772870     C.3   1  noname    0.312832
    3   O3         0.840319386    -0.600107047    -0.668263498     O.3   1  noname   -0.491825
    4   C4         1.809051494     0.154099889    -0.113882386     C.2   1  noname    0.630266
    5   O5         1.757209199     0.716584744     0.963254790     O.2   1  noname   -0.544708
    6   H6        -0.797400211     1.373003290     0.315421736       H   1  noname    0.186308
    7   H7        -2.217737658     0.321083622     0.457210395       H   1  noname    0.134428
    8   H8        -1.492081098     0.611882004    -1.136110126       H   1  noname    0.168497
    9   H9        -0.095017798    -0.854529703     1.172364136       H   1  noname    0.060187
   10   H10       -0.830184020    -1.646715204    -0.245622865       H   1  noname    0.049146
   11   H11        2.671663788     0.180777591    -0.793090028       H   1  noname    0.059904


@<TRIPOS>BOND
    1      1      2    1
    2      2      3    1
    3      3      4    1
    4      4      5    2
    5      1      6    1
    6      1      7    1
    7      1      8    1
    8      2      9    1
    9      2     10    1
   10      4     11    1
#
#	File Created by: Spartan'20 Export
#

@<TRIPOS>MOLECULE
M0205
15 14
SMALL
USER_CHARGES


@<TRIPOS>ATOM
    1   C1        -2.310364678    -0.356227923    -0.293705890     C.3   1  noname   -0.708897
    2   C2        -0.851315436    -0.051074767    -0.561229656     C.3   1  noname    0.359708
    3   O3        -0.273154455     0.362254821     0.671276662     O.3   1  noname   -0.447861
    4   C4         1.073058034     0.811757591     0.543939120     C.3   1  noname    0.146887
    5   C5         2.069038749    -0.326861495     0.377753734     C.3   1  noname   -0.483074
    6   H6        -2.394700556    -1.151890288     0.449659204       H   1  noname    0.200344
    7   H7        -2.813018850    -0.677430160    -1.210827533       H   1  noname    0.166852
    8   H8        -2.813507882     0.532857944     0.092395437       H   1  noname    0.195050
    9   H9        -0.749152501     0.751561526    -1.309302810       H   1  noname    0.013060
   10   H10       -0.341576091    -0.939348390    -0.960363893       H   1  noname    0.034334
   11   H11        1.152570289     1.524339381    -0.291794025       H   1  noname    0.038765
   12   H12        1.278829452     1.357871770     1.469010229       H   1  noname    0.080546
   13   H13        3.092717127     0.061022008     0.384664560       H   1  noname    0.125663
   14   H14        1.959799878    -1.036606078     1.201535337       H   1  noname    0.156775
   15   H15        1.920776921    -0.862225942    -0.563010475       H   1  noname    0.121847


@<TRIPOS>BOND
    1      1      2    1
    2      2      3    1
    3      3      4    1
    4      4      5    1
    5      1      6    1
    6      1      7    1
    7      1      8    1
    8      2      9    1
    9      2     10    1
   10      4     11    1
   11      4     12    1
   12      5     13    1
   13      5     14    1
   14      5     15    1
#
#	File Created by: Spartan'20 Export
#

@<TRIPOS>MOLECULE
M0206
15 14
SMALL
USER_CHARGES


@<TRIPOS>ATOM
    1   C1        -2.096874877     0.351080552    -0.316555525     C.3   1  noname   -0.516359
    2   C2        -1.227400289    -0.835988804     0.066580341     C.3   1  noname    0.185918
    3   O3         0.116658779    -0.723052768    -0.404697058     O.3   1  noname   -0.462623
    4   C4         0.882923832     0.242805964     0.296920507     C.3   1  noname    0.231764
    5   C5         2.314521913     0.020527929    -0.145329882     C.3   1  noname   -0.394843
    6   Cl6        3.396848546     1.204077125     0.640322495      Cl   1  noname   -0.159932
    7   H7        -1.774820648     1.269189022     0.180375841       H   1  noname    0.129736
    8   H8        -3.136000346     0.162981440    -0.029280887       H   1  noname    0.136230
    9   H9        -2.057158430     0.507846486    -1.397368142       H   1  noname    0.165576
   10   H10       -1.225677861    -0.983737661     1.157376541       H   1  noname    0.042317
   11   H11       -1.607850698    -1.750163431    -0.396649838       H   1  noname    0.079344
   12   H12        0.793985153     0.102081391     1.383891350       H   1  noname    0.059173
   13   H13        0.574030416     1.268429837     0.059152412       H   1  noname    0.078813
   14   H14        2.646860226    -0.980683028     0.130542298       H   1  noname    0.207647
   15   H15        2.399954283     0.144605946    -1.225280454       H   1  noname    0.217240


@<TRIPOS>BOND
    1      1      2    1
    2      2      3    1
    3      3      4    1
    4      4      5    1
    5      5      6    1
    6      1      7    1
    7      1      8    1
    8      1      9    1
    9      2     10    1
   10      2     11    1
   11      4     12    1
   12      4     13    1
   13      5     14    1
   14      5     15    1
#
#	File Created by: Spartan'20 Export
#

@<TRIPOS>MOLECULE
M0207
22 21
SMALL
USER_CHARGES


@<TRIPOS>ATOM
    1   C1         3.808234336     0.575277749    -0.291650516     C.3   1  noname   -0.686020
    2   C2         2.553444240     0.349047625     0.524206532     C.3   1  noname    0.302476
    3   O3         1.686912407    -0.475345756    -0.252689863     O.3   1  noname   -0.395844
    4   C4         0.469205088    -0.794710752     0.412894851     C.3   1  noname   -0.150677
    5   C5        -0.576271683     0.300383189     0.233181646     C.3   1  noname    0.132304
    6   O6        -1.789857409    -0.074645238     0.881158127     O.3   1  noname   -0.478537
    7   C7        -2.704475340    -0.757444432     0.019530998     C.3   1  noname    0.244469
    8   C8        -3.574592409     0.218696006    -0.755156185     C.3   1  noname   -0.534164
    9   H9         3.561348423     1.076957247    -1.229506043       H   1  noname    0.189677
   10   H10        4.519357798     1.194934493     0.261877281       H   1  noname    0.169203
   11   H11        4.280456754    -0.381261184    -0.524413621       H   1  noname    0.196880
   12   H12        2.074556492     1.307932297     0.767271861       H   1  noname    0.033509
   13   H13        2.788669097    -0.152710001     1.474831103       H   1  noname    0.038891
   14   H14        0.633577473    -0.975698030     1.484361590       H   1  noname    0.105191
   15   H15        0.108726334    -1.725770523    -0.034876792       H   1  noname    0.134084
   16   H16       -0.246651078     1.234135837     0.697881078       H   1  noname    0.075838
   17   H17       -0.724191246     0.492213064    -0.837416525       H   1  noname    0.089006
   18   H18       -3.318762801    -1.379413144     0.677238188       H   1  noname    0.055028
   19   H19       -2.164590999    -1.427955316    -0.663697967       H   1  noname    0.042997
   20   H20       -4.303936846    -0.318318478    -1.369562760       H   1  noname    0.131161
   21   H21       -4.110974916     0.867884428    -0.059568460       H   1  noname    0.165083
   22   H22       -2.970183714     0.845810919    -1.415894523       H   1  noname    0.139444


@<TRIPOS>BOND
    1      1      2    1
    2      2      3    1
    3      3      4    1
    4      4      5    1
    5      5      6    1
    6      6      7    1
    7      7      8    1
    8      1      9    1
    9      1     10    1
   10      1     11    1
   11      2     12    1
   12      2     13    1
   13      4     14    1
   14      4     15    1
   15      5     16    1
   16      5     17    1
   17      7     18    1
   18      7     19    1
   19      8     20    1
   20      8     21    1
   21      8     22    1
#
#	File Created by: Spartan'20 Export
#

@<TRIPOS>MOLECULE
M0208
26 25
SMALL
USER_CHARGES


@<TRIPOS>ATOM
    1   C1        -2.899166427    -2.707429824     0.112387198     C.3   1  noname   -0.681634
    2   C2        -1.521781418    -2.174833974     0.431846569     C.3   1  noname    0.314629
    3   O3        -1.555289301    -0.742294879     0.189816216     O.3   1  noname   -0.457438
    4   P4        -0.238675416     0.083132118     0.584743038       P   1  noname    1.257678
    5   O5         0.300347640    -0.060515096     1.962203746     O.2   1  noname   -0.737952
    6   O6         0.833765632    -0.336519115    -0.561700443     O.3   1  noname   -0.521529
    7   C7         2.197380433    -0.634648974    -0.154891537     C.3   1  noname    0.322885
    8   C8         2.931359646    -1.095260977    -1.393897471     C.3   1  noname   -0.600903
    9   O9        -0.778817090     1.529359366     0.143176289     O.3   1  noname   -0.473370
   10   C10        0.123594756     2.651216368     0.333515884     C.3   1  noname    0.321331
   11   C11       -0.680406815     3.908861867     0.102972038     C.3   1  noname   -0.651039
   12   H12       -3.152172858    -2.502262753    -0.930163130       H   1  noname    0.197403
   13   H13       -3.644872158    -2.234305288     0.755035643       H   1  noname    0.202656
   14   H14       -2.928574587    -3.788456051     0.276988199       H   1  noname    0.171702
   15   H15       -0.757466465    -2.619040441    -0.213529198       H   1  noname    0.051025
   16   H16       -1.252688988    -2.351658494     1.477017933       H   1  noname    0.057694
   17   H17        2.652395517     0.265805764     0.269588094       H   1  noname    0.026625
   18   H18        2.182703126    -1.401967325     0.624156199       H   1  noname    0.041201
   19   H19        2.912842373    -0.318412116    -2.161142293       H   1  noname    0.177167
   20   H20        3.972027902    -1.320397766    -1.148635129       H   1  noname    0.155369
   21   H21        2.465834223    -1.995261055    -1.800392484       H   1  noname    0.174759
   22   H22        0.531603266     2.614536643     1.347735335       H   1  noname    0.055498
   23   H23        0.944303739     2.562101796    -0.385869516       H   1  noname    0.047647
   24   H24       -1.098070665     3.910891886    -0.905576069       H   1  noname    0.190941
   25   H25       -1.498585213     3.968646057     0.822570718       H   1  noname    0.196236
   26   H26       -0.041590854     4.788712263     0.222044172       H   1  noname    0.161420


@<TRIPOS>BOND
    1      1      2    1
    2      2      3    1
    3      3      4    1
    4      4      5    2
    5      4      6    1
    6      6      7    1
    7      7      8    1
    8      4      9    1
    9      9     10    1
   10     10     11    1
   11      1     12    1
   12      1     13    1
   13      1     14    1
   14      2     15    1
   15      2     16    1
   16      7     17    1
   17      7     18    1
   18      8     19    1
   19      8     20    1
   20      8     21    1
   21     10     22    1
   22     10     23    1
   23     11     24    1
   24     11     25    1
   25     11     26    1
#
#	File Created by: Spartan'20 Export
#

@<TRIPOS>MOLECULE
M0209
15 14
SMALL
USER_CHARGES


@<TRIPOS>ATOM
    1   C1         1.947792518    -0.556008727    -1.025218127     C.3   1  noname   -0.526843
    2   C2         1.212977156    -0.886070926     0.255323383     C.3   1  noname    0.209706
    3   O3        -0.225913300    -0.651825679     0.092600957     O.3   1  noname   -0.459536
    4   S4        -0.733950946     0.800835201     0.642990016       S   1  noname    1.352794
    5   O5        -0.611405006     0.836404841     2.099167155     O.2   1  noname   -0.610430
    6   O6        -0.129659737     1.865106016    -0.157214188     O.2   1  noname   -0.592850
    7   C7        -2.433615397     0.592251541     0.187096509     C.3   1  noname   -0.778674
    8   H8         1.537688946    -1.136581960    -1.854892869       H   1  noname    0.163501
    9   H9         3.008239126    -0.805815257    -0.916483342       H   1  noname    0.140429
   10   H10        1.855126033     0.506556689    -1.253920034       H   1  noname    0.174269
   11   H11        1.578309914    -0.307136706     1.109177164       H   1  noname    0.077064
   12   H12        1.278530458    -1.945450662     0.510052312       H   1  noname    0.082980
   13   H13       -2.956818722     1.498550071     0.495108356       H   1  noname    0.260503
   14   H14       -2.833766232    -0.275522037     0.709341192       H   1  noname    0.252389
   15   H15       -2.493534810     0.464707596    -0.893128484       H   1  noname    0.254699


@<TRIPOS>BOND
    1      1      2    1
    2      2      3    1
    3      3      4    1
    4      4      5    2
    5      4      6    2
    6      4      7    1
    7      1      8    1
    8      1      9    1
    9      1     10    1
   10      2     11    1
   11      2     12    1
   12      7     13    1
   13      7     14    1
   14      7     15    1
#
#	File Created by: Spartan'20 Export
#

@<TRIPOS>MOLECULE
M0210
19 18
SMALL
USER_CHARGES


@<TRIPOS>ATOM
    1   C1        -3.461782678    -0.000030515     0.821985173     C.3   1  noname   -0.654257
    2   C2        -2.514518402    -0.000235542    -0.352721547     C.3   1  noname    0.307666
    3   O3        -1.165706758    -0.000123198     0.219633799     O.3   1  noname   -0.377093
    4   S4        -0.000009253     0.000456843    -0.892435174       S   1  noname    1.154538
    5   O5         0.000162187     1.258631816    -1.627062391     O.2   1  noname   -0.552214
    6   O6        -0.000214644    -1.256741726    -1.628698100     O.2   1  noname   -0.552285
    7   O7         1.165729755    -0.000420443     0.219596457     O.3   1  noname   -0.377130
    8   C8         2.514543567    -0.000414801    -0.352744632     C.3   1  noname    0.307916
    9   C9         3.461776687     0.000067187     0.821986319     C.3   1  noname   -0.654537
   10   H10       -3.308719420     0.888479707     1.436771115       H   1  noname    0.196745
   11   H11       -4.492166022    -0.000275912     0.455541186       H   1  noname    0.172314
   12   H12       -3.308529817    -0.888066850     1.437430410       H   1  noname    0.196742
   13   H13       -2.627004874    -0.893785397    -0.972073055       H   1  noname    0.066432
   14   H14       -2.627044230     0.893063127    -0.972430925       H   1  noname    0.066437
   15   H15        2.626965253     0.892838768    -0.972537260       H   1  noname    0.066403
   16   H16        2.627158637    -0.894008443    -0.972013730       H   1  noname    0.066368
   17   H17        3.308558383     0.888579138     1.436726277       H   1  noname    0.196794
   18   H18        3.308628253    -0.887967158     1.437462001       H   1  noname    0.196806
   19   H19        4.492173376    -0.000046601     0.455584077       H   1  noname    0.172357


@<TRIPOS>BOND
    1      1      2    1
    2      2      3    1
    3      3      4    1
    4      4      5    2
    5      4      6    2
    6      4      7    1
    7      7      8    1
    8      8      9    1
    9      1     10    1
   10      1     11    1
   11      1     12    1
   12      2     13    1
   13      2     14    1
   14      8     15    1
   15      8     16    1
   16      9     17    1
   17      9     18    1
   18      9     19    1
#
#	File Created by: Spartan'20 Export
#

@<TRIPOS>MOLECULE
M0211
23 22
SMALL
USER_CHARGES


@<TRIPOS>ATOM
    1   C1        -0.268445630     2.736122185     0.137807785     C.3   1  noname   -0.376825
    2   C2        -0.719880982     1.464001512    -0.584810196     C.3   1  noname   -0.164963
    3   P3        -0.333234946    -0.064596300     0.351878063       P   1  noname    0.948922
    4   O4        -0.459342413     0.096344581     1.850114413     O.2   1  noname   -0.740274
    5   C5        -1.472544502    -1.300463334    -0.365799364     C.3   1  noname   -0.313981
    6   C6        -1.313660361    -2.689218060     0.256890349     C.3   1  noname   -0.376926
    7   C7         1.325971245    -0.613132509    -0.189994363     C.3   1  noname   -0.059977
    8   C8         2.448886614     0.335371856     0.236680159     C.3   1  noname   -0.600635
    9   H9        -0.657330171     3.621729689    -0.372217159       H   1  noname    0.112266
   10   H10       -0.634624390     2.733265463     1.166361619       H   1  noname    0.134001
   11   H11        0.819432240     2.818845312     0.172191487       H   1  noname    0.106023
   12   H12       -0.290816335     1.398998362    -1.592263202       H   1  noname    0.054780
   13   H13       -1.809427119     1.484400268    -0.706275888       H   1  noname    0.066840
   14   H14       -2.485939068    -0.924422962    -0.181573107       H   1  noname    0.129911
   15   H15       -1.334421254    -1.332651628    -1.454220476       H   1  noname    0.074161
   16   H16       -0.349168823    -3.137416520     0.003125339       H   1  noname    0.095144
   17   H17       -1.384083945    -2.625664479     1.345677788       H   1  noname    0.136352
   18   H18       -2.097149506    -3.362680849    -0.100800431       H   1  noname    0.132829
   19   H19        1.322481774    -0.760190773    -1.277395817       H   1  noname    0.041560
   20   H20        1.483570688    -1.596316120     0.267705082       H   1  noname    0.092949
   21   H21        3.425497923    -0.125420028     0.063613843       H   1  noname    0.159776
   22   H22        2.419367810     1.270952883    -0.327266577       H   1  noname    0.171498
   23   H23        2.364861150     0.572141448     1.300570654       H   1  noname    0.176570


@<TRIPOS>BOND
    1      1      2    1
    2      2      3    1
    3      3      4    2
    4      3      5    1
    5      5      6    1
    6      3      7    1
    7      7      8    1
    8      1      9    1
    9      1     10    1
   10      1     11    1
   11      2     12    1
   12      2     13    1
   13      5     14    1
   14      5     15    1
   15      6     16    1
   16      6     17    1
   17      6     18    1
   18      7     19    1
   19      7     20    1
   20      8     21    1
   21      8     22    1
   22      8     23    1
#
#	File Created by: Spartan'20 Export
#

@<TRIPOS>MOLECULE
M0212
9 8
SMALL
USER_CHARGES


@<TRIPOS>ATOM
    1   C1        -0.816905375    -0.473130322     0.180778075     C.3   1  noname   -0.508976
    2   C2         0.197610442     0.658994925     0.104402621     C.3   1  noname    0.073336
    3   S3         1.489527638     0.403742685    -1.153812374     S.3   1  noname   -0.352199
    4   H4        -1.297099630    -0.628815129    -0.787647332       H   1  noname    0.140950
    5   H5        -1.588991614    -0.241771313     0.921404192       H   1  noname    0.134564
    6   H6        -0.336994104    -1.410485914     0.475978161       H   1  noname    0.145697
    7   H7        -0.293003669     1.592158481    -0.185150220       H   1  noname    0.119827
    8   H8         0.666436743     0.830914246     1.076527875       H   1  noname    0.043664
    9   H9         1.979419568    -0.731607659    -0.632480998       H   1  noname    0.203138


@<TRIPOS>BOND
    1      1      2    1
    2      2      3    1
    3      1      4    1
    4      1      5    1
    5      1      6    1
    6      2      7    1
    7      2      8    1
    8      3      9    1
#
#	File Created by: Spartan'20 Export
#

@<TRIPOS>MOLECULE
M0213
15 14
SMALL
USER_CHARGES


@<TRIPOS>ATOM
    1   C1         1.910668665    -0.412133311     0.402302249     C.3   1  noname   -0.602017
    2   C2         1.252127135     0.643503494    -0.477208379     C.3   1  noname    0.113656
    3   S3        -0.000002273     0.000042192    -1.624805641     S.3   1  noname   -0.330068
    4   C4        -1.252100273    -0.643484405    -0.477216918     C.3   1  noname    0.113680
    5   C5        -1.910688631     0.412120387     0.402296827     C.3   1  noname   -0.602017
    6   H6         1.195130809    -0.869113947     1.090425281       H   1  noname    0.187644
    7   H7         2.348240542    -1.204644476    -0.209370842       H   1  noname    0.163537
    8   H8         2.704569201     0.041331767     1.004056089       H   1  noname    0.146895
    9   H9         1.999594513     1.108147916    -1.127830152       H   1  noname    0.102855
   10   H10        0.822368465     1.446055585     0.130054472       H   1  noname    0.052461
   11   H11       -0.822314424    -1.446020173     0.130043022       H   1  noname    0.052455
   12   H12       -1.999545953    -1.108156682    -1.127839558       H   1  noname    0.102847
   13   H13       -2.348373766     1.204558336    -0.209375800       H   1  noname    0.163538
   14   H14       -2.704511652    -0.041401267     1.004109412       H   1  noname    0.146890
   15   H15       -1.195162359     0.869194585     1.090359940       H   1  noname    0.187643


@<TRIPOS>BOND
    1      1      2    1
    2      2      3    1
    3      3      4    1
    4      4      5    1
    5      1      6    1
    6      1      7    1
    7      1      8    1
    8      2      9    1
    9      2     10    1
   10      4     11    1
   11      4     12    1
   12      5     13    1
   13      5     14    1
   14      5     15    1
#
#	File Created by: Spartan'20 Export
#

@<TRIPOS>MOLECULE
M0214
16 15
SMALL
USER_CHARGES


@<TRIPOS>ATOM
    1   C1        -2.632273291    -0.763127921    -0.556348590     C.3   1  noname   -0.281903
    2   C2        -1.995343669     0.589185692    -0.277164320     C.3   1  noname   -0.076116
    3   S3        -1.169675725     0.698336816     1.344282301     S.3   1  noname   -0.154848
    4   S4         0.429162705    -0.575721619     1.123665173     S.3   1  noname   -0.068250
    5   C5         1.690779013     0.519021084     0.393027772     C.3   1  noname   -0.077510
    6   C6         2.980799014    -0.270582850     0.205392081     C.3   1  noname   -0.491317
    7   H7        -1.876773608    -1.552762234    -0.563219546       H   1  noname    0.084109
    8   H8        -3.377547826    -1.004360077     0.205671538       H   1  noname    0.105305
    9   H9        -3.124222624    -0.752480424    -1.533986998       H   1  noname    0.080994
   10   H10       -2.754778020     1.378811579    -0.242903000       H   1  noname    0.116256
   11   H11       -1.279126601     0.860883741    -1.058667223       H   1  noname    0.090492
   12   H12        1.328682340     0.896963660    -0.567073782       H   1  noname    0.116047
   13   H13        1.846185240     1.369949789     1.060590006       H   1  noname    0.100632
   14   H14        3.749269876     0.374814749    -0.229117849       H   1  noname    0.145183
   15   H15        2.831168552    -1.120788207    -0.465302537       H   1  noname    0.154234
   16   H16        3.353694623    -0.648143777     1.161154975       H   1  noname    0.156691


@<TRIPOS>BOND
    1      1      2    1
    2      2      3    1
    3      3      4    1
    4      4      5    1
    5      5      6    1
    6      1      7    1
    7      1      8    1
    8      1      9    1
    9      2     10    1
   10      2     11    1
   11      5     12    1
   12      5     13    1
   13      6     14    1
   14      6     15    1
   15      6     16    1
#
#	File Created by: Spartan'20 Export
#

@<TRIPOS>MOLECULE
M0215
23 22
SMALL
USER_CHARGES


@<TRIPOS>ATOM
    1   C1        -1.030269447     2.199328014    -0.490234333     C.3   1  noname   -0.489050
    2   C2        -0.859234810     1.485619317     0.850701771     C.3   1  noname   -0.267529
    3   As3        0.173513304    -0.165821816     0.770360602      As   1  noname    0.847983
    4   O4         0.339944366    -0.914016398     2.235593054     O.2   1  noname   -0.763863
    5   C5         1.871100052     0.334730599    -0.048826155     C.3   1  noname   -0.125043
    6   C6         2.843165281    -0.844946147    -0.061437421     C.3   1  noname   -0.564486
    7   C7        -0.717989157    -1.274183539    -0.563701146     C.3   1  noname    0.048387
    8   C8        -2.133930264    -1.641084724    -0.122074219     C.3   1  noname   -0.594419
    9   H9        -1.547643490     1.569424109    -1.218913597       H   1  noname    0.146227
   10   H10       -1.621996191     3.111565138    -0.367469355       H   1  noname    0.161211
   11   H11       -0.066676759     2.489497808    -0.918201923       H   1  noname    0.121138
   12   H12       -0.344454269     2.121109059     1.579441055       H   1  noname    0.123633
   13   H13       -1.826912881     1.222636324     1.289523696       H   1  noname    0.128736
   14   H14        2.271172271     1.164697192     0.543255263       H   1  noname    0.103383
   15   H15        1.679722712     0.709431655    -1.060480830       H   1  noname    0.066475
   16   H16        3.824563212    -0.536592749    -0.433973554       H   1  noname    0.162602
   17   H17        2.479020677    -1.650091054    -0.706541638       H   1  noname    0.134840
   18   H18        2.965382939    -1.249622340     0.946328370       H   1  noname    0.187862
   19   H19       -0.711886151    -0.753538329    -1.527144232       H   1  noname    0.019931
   20   H20       -0.099379979    -2.171627075    -0.668575528       H   1  noname    0.062548
   21   H21       -2.779887739    -0.758996100    -0.082783662       H   1  noname    0.161500
   22   H22       -2.588449220    -2.353076250    -0.816715299       H   1  noname    0.153006
   23   H23       -2.118874461    -2.094442694     0.871869078       H   1  noname    0.174928


@<TRIPOS>BOND
    1      1      2    1
    2      2      3    1
    3      3      4    2
    4      3      5    1
    5      5      6    1
    6      3      7    1
    7      7      8    1
    8      1      9    1
    9      1     10    1
   10      1     11    1
   11      2     12    1
   12      2     13    1
   13      5     14    1
   14      5     15    1
   15      6     16    1
   16      6     17    1
   17      6     18    1
   18      7     19    1
   19      7     20    1
   20      8     21    1
   21      8     22    1
   22      8     23    1
#
#	File Created by: Spartan'20 Export
#

@<TRIPOS>MOLECULE
M0216
17 17
SMALL
USER_CHARGES


@<TRIPOS>ATOM
    1   C1         2.410056346    -0.694049005     0.163358909     C.3   1  noname   -0.231082
    2   C2         1.623168364     0.617473332     0.116692590     C.3   1  noname   -0.357344
    3   C3         0.139616520     0.364798765     0.078617028     C.2   1  noname    0.700248
    4   C4        -0.629442113     0.606769085    -1.064946808     C.2   1  noname   -0.579282
    5   C5        -1.992831527     0.316068686    -1.047501389     C.2   1  noname    0.200456
    6   C6        -2.547267512    -0.212842055     0.116165885     C.2   1  noname   -0.492650
    7   C7        -1.708167252    -0.425921422     1.210096732     C.2   1  noname    0.376010
    8   N8        -0.393408247    -0.149977195     1.207501804     N.2   1  noname   -0.660127
    9   H9         2.220197869    -1.290658835    -0.733135904       H   1  noname    0.083636
   10   H10        3.485873914    -0.506180615     0.227032119       H   1  noname    0.086030
   11   H11        2.102336326    -1.276528240     1.035147078       H   1  noname    0.096141
   12   H12        1.848216554     1.211419149     1.008598863       H   1  noname    0.120600
   13   H13        1.919675248     1.210327067    -0.757320850       H   1  noname    0.107561
   14   H14       -0.162097296     1.021666408    -1.954938633       H   1  noname    0.197570
   15   H15       -2.608616636     0.499148139    -1.924188162       H   1  noname    0.103091
   16   H16       -3.604306757    -0.455080390     0.180061123       H   1  noname    0.184671
   17   H17       -2.103003802    -0.836432875     2.138759613       H   1  noname    0.064471


@<TRIPOS>BOND
    1      1      2    1
    2      2      3    1
    3      3      4    2
    4      4      5    1
    5      5      6    2
    6      6      7    1
    7      7      8    2
    8      8      3    1
    9      1      9    1
   10      1     10    1
   11      1     11    1
   12      2     12    1
   13      2     13    1
   14      4     14    1
   15      5     15    1
   16      6     16    1
   17      7     17    1
#
#	File Created by: Spartan'20 Export
#

@<TRIPOS>MOLECULE
M0217
17 17
SMALL
USER_CHARGES


@<TRIPOS>ATOM
    1   C1        -0.285191578    -2.323827095    -0.513308085     C.3   1  noname   -0.329895
    2   C2        -0.465936457    -1.403027763     0.697651566     C.3   1  noname   -0.145521
    3   C3        -0.035520189     0.006997393     0.396016779     C.2   1  noname   -0.221105
    4   C4        -0.878988193     0.909338691    -0.260779416     C.2   1  noname    0.145691
    5   C5        -0.409238928     2.186071635    -0.562208032     C.2   1  noname   -0.520441
    6   C6         0.896728116     2.522005609    -0.202960699     C.2   1  noname    0.428256
    7   N7         1.731461762     1.677308686     0.428260759     N.2   1  noname   -0.653957
    8   C8         1.254617052     0.452500929     0.710314927     C.2   1  noname    0.361335
    9   H9         0.763421174    -2.347581488    -0.822994743       H   1  noname    0.112180
   10   H10       -0.598839512    -3.345858568    -0.280495377       H   1  noname    0.100518
   11   H11       -0.878128528    -1.967880238    -1.360769125       H   1  noname    0.109387
   12   H12       -1.516538071    -1.404482304     1.011103163       H   1  noname    0.095205
   13   H13        0.115985976    -1.786546387     1.543690607       H   1  noname    0.091658
   14   H14       -1.894922219     0.616708207    -0.523210734       H   1  noname    0.113465
   15   H15       -1.042189069     2.912109356    -1.065622699       H   1  noname    0.192999
   16   H16        1.297469461     3.509872890    -0.423255613       H   1  noname    0.052018
   17   H17        1.945809202    -0.213709551     1.228566719       H   1  noname    0.068207


@<TRIPOS>BOND
    1      1      2    1
    2      2      3    1
    3      3      4    2
    4      4      5    1
    5      5      6    2
    6      6      7    1
    7      7      8    2
    8      8      3    1
    9      1      9    1
   10      1     10    1
   11      1     11    1
   12      2     12    1
   13      2     13    1
   14      4     14    1
   15      5     15    1
   16      6     16    1
   17      8     17    1
#
#	File Created by: Spartan'20 Export
#

@<TRIPOS>MOLECULE
M0218
17 17
SMALL
USER_CHARGES


@<TRIPOS>ATOM
    1   C1        -0.659897483    -0.000638923    -2.251725708     C.3   1  noname   -0.286307
    2   C2         0.640630662     0.000432312    -1.441419433     C.3   1  noname   -0.189277
    3   C3         0.369830167     0.000306511     0.039205198     C.2   1  noname    0.507168
    4   C4         0.204973817     1.191375528     0.753346149     C.2   1  noname   -0.623022
    5   C5        -0.100755947     1.142758315     2.113107048     C.2   1  noname    0.463015
    6   N6        -0.257768983    -0.000055861     2.805372022     N.2   1  noname   -0.675172
    7   C7        -0.101615910    -1.142700203     2.112645999     C.2   1  noname    0.463191
    8   C8         0.204084511    -1.190954210     0.752876417     C.2   1  noname   -0.623348
    9   H9        -1.258252090    -0.885422382    -2.016795987       H   1  noname    0.100872
   10   H10       -0.453217270    -0.000488036    -3.326101585       H   1  noname    0.089137
   11   H11       -1.259705388     0.883163566    -2.016809013       H   1  noname    0.100389
   12   H12        1.238592475     0.881191487    -1.702443086       H   1  noname    0.083642
   13   H13        1.239968828    -0.879421651    -1.702360034       H   1  noname    0.083659
   14   H14        0.323611573     2.153414154     0.258238990       H   1  noname    0.205469
   15   H15       -0.225469309     2.062155275     2.683173441       H   1  noname    0.047556
   16   H16       -0.227030721    -2.062238439     2.682323839       H   1  noname    0.047534
   17   H17        0.322021066    -2.152877443     0.257365742       H   1  noname    0.205495


@<TRIPOS>BOND
    1      1      2    1
    2      2      3    1
    3      3      4    2
    4      4      5    1
    5      5      6    2
    6      6      7    1
    7      7      8    2
    8      8      3    1
    9      1      9    1
   10      1     10    1
   11      1     11    1
   12      2     12    1
   13      2     13    1
   14      4     14    1
   15      5     15    1
   16      7     16    1
   17      8     17    1
#
#	File Created by: Spartan'20 Export
#

@<TRIPOS>MOLECULE
M0219
7 6
SMALL
USER_CHARGES


@<TRIPOS>ATOM
    1   C1        -0.655027187    -0.041035316     0.054764057     C.3   1  noname   -0.587936
    2   N2         0.821937222     0.049980687    -0.095138755       N   1  noname    0.872227
    3   O3         1.451188729    -1.016709578    -0.180153172       O   1  noname   -0.471773
    4   O4         1.321371011     1.186037789    -0.078177554     O.2   1  noname   -0.473320
    5   H5        -0.869097382    -0.053072419     1.123854157       H   1  noname    0.226988
    6   H6        -0.980453056    -0.965977859    -0.414707499       H   1  noname    0.216968
    7   H7        -1.089919338     0.840776695    -0.410441234       H   1  noname    0.216846


@<TRIPOS>BOND
    1      1      2    1
    2      2      3    1
    3      2      4    2
    4      1      5    1
    5      1      6    1
    6      1      7    1
#
#	File Created by: Spartan'20 Export
#

@<TRIPOS>MOLECULE
M0220
15 14
SMALL
USER_CHARGES


@<TRIPOS>ATOM
    1   C1        -1.003653888    -1.300183684    -1.088137520     C.3   1  noname   -0.452173
    2   N2        -0.530398683    -0.438686886    -0.014687790   N.pl3   1  noname   -0.029623
    3   C3        -1.438254984     0.610740863     0.408334544     C.3   1  noname   -0.517063
    4   C4         0.814398908    -0.217544783     0.086796848     C.2   1  noname    0.089921
    5   C5         1.420253034     0.848231405     0.675575908     C.2   1  noname   -0.472436
    6   C6         2.837910185     0.880046279     0.791199577     C.1   1  noname    0.372998
    7   N7         4.018229411     0.917838217     0.885930292     N.1   1  noname   -0.480087
    8   H8        -1.142413282    -0.753434795    -2.030868989       H   1  noname    0.178048
    9   H9        -1.957779623    -1.747231436    -0.798392334       H   1  noname    0.171535
   10   H10       -0.281130116    -2.102060832    -1.251336837       H   1  noname    0.159937
   11   H11       -1.382284398     1.497269298    -0.240279445       H   1  noname    0.185864
   12   H12       -2.457866459     0.221071598     0.390157915       H   1  noname    0.202854
   13   H13       -1.199197181     0.907482181     1.432506859       H   1  noname    0.176389
   14   H14        1.432648438    -1.016465976    -0.318798541       H   1  noname    0.175326
   15   H15        0.869538640     1.692928554     1.071999513       H   1  noname    0.238509


@<TRIPOS>BOND
    1      1      2    1
    2      2      3    1
    3      2      4    1
    4      4      5    2
    5      5      6    1
    6      6      7    3
    7      1      8    1
    8      1      9    1
    9      1     10    1
   10      3     11    1
   11      3     12    1
   12      3     13    1
   13      4     14    1
   14      5     15    1
#
#	File Created by: Spartan'20 Export
#

@<TRIPOS>MOLECULE
M0221
16 15
SMALL
USER_CHARGES


@<TRIPOS>ATOM
    1   C1        -1.166970773    -1.262522027     0.340388313     C.3   1  noname   -0.518356
    2   N2        -0.772047207     0.134084571     0.312530003   N.pl3   1  noname    0.019266
    3   C3        -1.825684350     1.113354517     0.093272533     C.3   1  noname   -0.501567
    4   C4         0.507678123     0.456825468    -0.002672598     C.2   1  noname    0.180707
    5   C5         1.529478740    -0.412458743    -0.194952489     C.2   1  noname   -0.611123
    6   N6         2.843858328     0.104353453    -0.431931362       N   1  noname    0.905936
    7   O7         3.740442579    -0.742849934    -0.624358083       O   1  noname   -0.501206
    8   O8         3.032425000     1.337683025    -0.443271111     O.2   1  noname   -0.524711
    9   H9        -0.462206467    -1.827697835     0.955204761       H   1  noname    0.185071
   10   H10       -2.158587731    -1.339327508     0.789208791       H   1  noname    0.201432
   11   H11       -1.193392877    -1.702149052    -0.665915661       H   1  noname    0.193374
   12   H12       -1.410312207     2.115543269     0.197849664       H   1  noname    0.173683
   13   H13       -2.606770834     0.980525710     0.847287567       H   1  noname    0.182747
   14   H14       -2.276743185     1.016993254    -0.903183158       H   1  noname    0.190021
   15   H15        0.729361208     1.518758660    -0.068597947       H   1  noname    0.168937
   16   H16        1.489471653    -1.491116827    -0.200859222       H   1  noname    0.255787


@<TRIPOS>BOND
    1      1      2    1
    2      2      3    1
    3      2      4    1
    4      4      5    2
    5      5      6    1
    6      6      7    1
    7      6      8    2
    8      1      9    1
    9      1     10    1
   10      1     11    1
   11      3     12    1
   12      3     13    1
   13      3     14    1
   14      4     15    1
   15      5     16    1
#
#	File Created by: Spartan'20 Export
#

@<TRIPOS>MOLECULE
M0222
14 13
SMALL
USER_CHARGES


@<TRIPOS>ATOM
    1   C1        -1.137080980    -1.245618957    -0.672449628     C.3   1  noname   -0.634730
    2   N2        -0.306290125    -0.114563090    -0.302651135   N.pl3   1  noname    0.161966
    3   C3        -0.494027801     1.119188086    -1.050005983     C.3   1  noname   -0.474362
    4   C4         0.576215959    -0.192954643     0.707108857     C.2   1  noname    0.255936
    5   N5         1.314640998     0.821751554     1.066094883     N.2   1  noname   -0.524821
    6   C6         2.162290892     0.609338337     2.086797878     C.1   1  noname    0.500537
    7   N7         2.936937795     0.509617477     2.981853770     N.1   1  noname   -0.551323
    8   H8        -0.960469274    -1.518964653    -1.717533521       H   1  noname    0.207435
    9   H9        -0.899463474    -2.100747792    -0.038009132       H   1  noname    0.199846
   10   H10       -2.196529479    -0.996620062    -0.549122468       H   1  noname    0.208441
   11   H11        0.224000300     1.854505875    -0.690062333       H   1  noname    0.179023
   12   H12       -1.512218145     1.494110579    -0.904190561       H   1  noname    0.170795
   13   H13       -0.333116949     0.930777716    -2.115610615       H   1  noname    0.171428
   14   H14        0.625110285    -1.169820427     1.197779989       H   1  noname    0.129830


@<TRIPOS>BOND
    1      1      2    1
    2      2      3    1
    3      2      4    1
    4      4      5    2
    5      5      6    1
    6      6      7    3
    7      1      8    1
    8      1      9    1
    9      1     10    1
   10      3     11    1
   11      3     12    1
   12      3     13    1
   13      4     14    1
#
#	File Created by: Spartan'20 Export
#

@<TRIPOS>MOLECULE
M0223
13 12
SMALL
USER_CHARGES


@<TRIPOS>ATOM
    1   C1        -1.379172572    -0.000001947    -0.042381943     C.3   1  noname   -0.451856
    2   N2         0.000143731     0.000001687    -0.504917418     N.3   1  noname   -0.136242
    3   C3         0.689599991    -1.194595271    -0.042052069     C.3   1  noname   -0.480469
    4   C4         0.689599309     1.194593783    -0.042032968     C.3   1  noname   -0.480470
    5   H5        -1.461229462     0.000032883     1.060765092       H   1  noname    0.157365
    6   H6        -1.891343914    -0.886206880    -0.425534182       H   1  noname    0.172212
    7   H7        -1.891350513     0.886177146    -0.425584330       H   1  noname    0.172208
    8   H8         0.730991305    -1.265007850     1.061135020       H   1  noname    0.164446
    9   H9         1.713010835    -1.195505264    -0.425653496       H   1  noname    0.178706
   10   H10        0.177880077    -2.081297211    -0.424652506       H   1  noname    0.180474
   11   H11        1.713027963     1.195493073    -0.425588263       H   1  noname    0.178709
   12   H12        0.177901306     2.081297722    -0.424659060       H   1  noname    0.180474
   13   H13        0.730941943     1.265018130     1.061156122       H   1  noname    0.164444


@<TRIPOS>BOND
    1      1      2    1
    2      2      3    1
    3      2      4    1
    4      1      5    1
    5      1      6    1
    6      1      7    1
    7      3      8    1
    8      3      9    1
    9      3     10    1
   10      4     11    1
   11      4     12    1
   12      4     13    1
#
#	File Created by: Spartan'20 Export
#

@<TRIPOS>MOLECULE
M0224
11 10
SMALL
USER_CHARGES


@<TRIPOS>ATOM
    1   C1        -0.018528413     1.234178330    -0.438955945     C.3   1  noname   -0.431687
    2   N2        -0.366471003    -0.000030110     0.270465065   N.pl3   1  noname   -0.214891
    3   C3        -0.018065921    -1.234199767    -0.438889356     C.3   1  noname   -0.432552
    4   C4        -0.066958134     0.000048260     1.586727311     C.1   1  noname    0.488162
    5   N5         0.141295302     0.000119972     2.754623631     N.1   1  noname   -0.514427
    6   H6        -0.538365934     1.231148267    -1.399616825       H   1  noname    0.189843
    7   H7        -0.360202915     2.089186429     0.145678032       H   1  noname    0.183773
    8   H8         1.062032049     1.321430322    -0.613234889       H   1  noname    0.178793
    9   H9         1.062722433    -1.322493028    -0.610888789       H   1  noname    0.178891
   10   H10       -0.535721653    -1.230438190    -1.400619664       H   1  noname    0.190064
   11   H11       -0.361735811    -2.088950484     0.144711428       H   1  noname    0.184031


@<TRIPOS>BOND
    1      1      2    1
    2      2      3    1
    3      2      4    1
    4      4      5    3
    5      1      6    1
    6      1      7    1
    7      1      8    1
    8      3      9    1
    9      3     10    1
   10      3     11    1
#
#	File Created by: Spartan'20 Export
#

@<TRIPOS>MOLECULE
M0225
21 20
SMALL
USER_CHARGES


@<TRIPOS>ATOM
    1   C1        -1.627282107    -0.929325780     1.583128711     C.3   1  noname   -0.602554
    2   N2        -0.908161162    -0.573197940     0.372987946   N.pl3   1  noname   -0.183322
    3   C3        -1.803661079    -0.339951983    -0.760036465     C.3   1  noname   -0.493002
    4   C4         0.148244781     0.348412178     0.535883643     C.2   1  noname    0.817610
    5   N5         0.442884531     1.022072458     1.598320690     N.2   1  noname   -0.862328
    6   N6         0.930709009     0.491450887    -0.614100717   N.pl3   1  noname   -0.183015
    7   C7         1.958429354     1.520832396    -0.532250396     C.3   1  noname   -0.623923
    8   C8         1.420466830    -0.735745869    -1.238440168     C.3   1  noname   -0.459614
    9   H9        -0.918053688    -1.205291737     2.366268424       H   1  noname    0.191470
   10   H10       -2.261016376    -1.793240496     1.364591951       H   1  noname    0.222115
   11   H11       -2.273601108    -0.118193262     1.955921175       H   1  noname    0.176456
   12   H12       -2.577689307     0.404549513    -0.513560301       H   1  noname    0.168770
   13   H13       -1.229030357     0.026503288    -1.608061268       H   1  noname    0.165382
   14   H14       -2.297388576    -1.277203147    -1.033490415       H   1  noname    0.189460
   15   H15       -0.305133227     0.943069931     2.290643327       H   1  noname    0.355311
   16   H16        2.775774604     1.239560742     0.145579988       H   1  noname    0.207124
   17   H17        2.359934360     1.677600346    -1.537661452       H   1  noname    0.211386
   18   H18        1.516991422     2.445843770    -0.163272911       H   1  noname    0.206701
   19   H19        1.691190690    -0.525280868    -2.277040996       H   1  noname    0.179759
   20   H20        0.646315753    -1.500010502    -1.216950718       H   1  noname    0.152032
   21   H21        2.310075651    -1.122453926    -0.718460048       H   1  noname    0.164183


@<TRIPOS>BOND
    1      1      2    1
    2      2      3    1
    3      2      4    1
    4      4      5    2
    5      4      6    1
    6      6      7    1
    7      6      8    1
    8      1      9    1
    9      1     10    1
   10      1     11    1
   11      3     12    1
   12      3     13    1
   13      3     14    1
   14      5     15    1
   15      7     16    1
   16      7     17    1
   17      7     18    1
   18      8     19    1
   19      8     20    1
   20      8     21    1
#
#	File Created by: Spartan'20 Export
#

@<TRIPOS>MOLECULE
M0226
15 14
SMALL
USER_CHARGES


@<TRIPOS>ATOM
    1   C1        -1.714779321     0.270714451     0.816391558     C.3   1  noname   -0.503805
    2   N2        -0.459752962    -0.005267129     0.129202221   N.pl3   1  noname    0.052032
    3   C3        -0.577017964    -0.229691745    -1.306529167     C.3   1  noname   -0.654273
    4   C4         0.691489659     0.119682515     0.840731801     C.2   1  noname    0.455338
    5   O5         0.760531974     0.390690970     2.040099366     O.2   1  noname   -0.532343
    6   C6         2.004680121    -0.114973198     0.071060761     C.3   1  noname    0.611155
    7   F7         3.054854873     0.045650080     0.877679684       F   1  noname   -0.201906
    8   F8         2.133834662     0.756930462    -0.960817961       F   1  noname   -0.215573
    9   F9         2.063858402    -1.368492685    -0.445763728       F   1  noname   -0.225340
   10   H10       -1.512819635     0.380827416     1.879809454       H   1  noname    0.205888
   11   H11       -2.163064601     1.192862557     0.430333414       H   1  noname    0.180271
   12   H12       -2.408962351    -0.558498165     0.650813744       H   1  noname    0.174625
   13   H13        0.349898131    -0.593792430    -1.734800224       H   1  noname    0.218089
   14   H14       -1.352490008    -0.981988993    -1.473822620       H   1  noname    0.221509
   15   H15       -0.870260980     0.695345893    -1.814388302       H   1  noname    0.214334


@<TRIPOS>BOND
    1      1      2    1
    2      2      3    1
    3      2      4    1
    4      4      5    2
    5      4      6    1
    6      6      7    1
    7      6      8    1
    8      6      9    1
    9      1     10    1
   10      1     11    1
   11      1     12    1
   12      3     13    1
   13      3     14    1
   14      3     15    1
#
#	File Created by: Spartan'20 Export
#

@<TRIPOS>MOLECULE
M0227
15 14
SMALL
USER_CHARGES


@<TRIPOS>ATOM
    1   C1        -1.052878276     0.733522019     0.648152963     C.3   1  noname   -0.673798
    2   N2        -0.374572319    -0.255021403    -0.172783696   N.pl3   1  noname    0.025702
    3   C3        -1.218160802    -0.939867255    -1.140829972     C.3   1  noname   -0.555937
    4   C4         0.974718868    -0.463073673    -0.224051122     C.2   1  noname    0.681410
    5   O5         1.506463965    -1.277139098    -0.986189307     O.2   1  noname   -0.598471
    6   C6         1.854070118     0.331772227     0.733901889     C.3   1  noname   -0.403438
    7   Cl7        1.945802915     2.060716498     0.283701414      Cl   1  noname   -0.104771
    8   H8        -1.373766415     1.590905877     0.045468761       H   1  noname    0.214135
    9   H9        -0.411653988     1.097967024     1.446253326       H   1  noname    0.218687
   10   H10       -1.937187262     0.270837728     1.097760017       H   1  noname    0.220665
   11   H11       -0.609178750    -1.668274376    -1.672871717       H   1  noname    0.206971
   12   H12       -2.038504762    -1.445224347    -0.621852012       H   1  noname    0.179584
   13   H13       -1.639863053    -0.222737175    -1.854235684       H   1  noname    0.194606
   14   H14        1.519617792     0.271067631     1.771087499       H   1  noname    0.186719
   15   H15        2.855091969    -0.085451677     0.646487640       H   1  noname    0.207937


@<TRIPOS>BOND
    1      1      2    1
    2      2      3    1
    3      2      4    1
    4      4      5    2
    5      4      6    1
    6      6      7    1
    7      1      8    1
    8      1      9    1
    9      1     10    1
   10      3     11    1
   11      3     12    1
   12      3     13    1
   13      6     14    1
   14      6     15    1
#
#	File Created by: Spartan'20 Export
#

@<TRIPOS>MOLECULE
M0228
12 11
SMALL
USER_CHARGES


@<TRIPOS>ATOM
    1   C1        -0.172008161     1.112754895    -0.773119015     C.3   1  noname   -0.618844
    2   N2         0.115640859    -0.139270908    -0.083283879   N.pl3   1  noname    0.051728
    3   C3        -0.997281875    -0.735118641     0.654437249     C.3   1  noname   -0.510540
    4   C4         1.355676744    -0.604521716     0.218969679     C.2   1  noname    0.558404
    5   O5         1.621796094    -1.545639214     0.936587489     O.2   1  noname   -0.514360
    6   Cl6        2.685204725     0.290793438    -0.594462048      Cl   1  noname   -0.148424
    7   H7        -0.144220103     1.965766980    -0.086103412       H   1  noname    0.205159
    8   H8        -1.174693656     1.033910117    -1.197309276       H   1  noname    0.222340
    9   H9         0.537703260     1.278708760    -1.579661307       H   1  noname    0.192488
   10   H10       -1.293679612    -0.096202698     1.492963087       H   1  noname    0.186464
   11   H11       -0.688086895    -1.705771232     1.033313020       H   1  noname    0.203023
   12   H12       -1.846051380    -0.855409782    -0.022331585       H   1  noname    0.172563


@<TRIPOS>BOND
    1      1      2    1
    2      2      3    1
    3      2      4    1
    4      4      5    2
    5      4      6    1
    6      1      7    1
    7      1      8    1
    8      1      9    1
    9      3     10    1
   10      3     11    1
   11      3     12    1
#
#	File Created by: Spartan'20 Export
#

@<TRIPOS>MOLECULE
M0229
20 19
SMALL
USER_CHARGES


@<TRIPOS>ATOM
    1   C1        -2.369069084     0.385543563    -0.824052812     C.3   1  noname   -0.604631
    2   N2        -1.166241780     0.141567858    -0.039880896   N.pl3   1  noname   -0.175257
    3   C3        -1.393197113    -0.727967494     1.111457665     C.3   1  noname   -0.438708
    4   C4        -0.000051245    -0.000151307    -0.791252049     C.2   1  noname    0.859747
    5   O5        -0.000254446    -0.000760423    -2.025618822     O.2   1  noname   -0.620492
    6   N6         1.166402878    -0.140880356    -0.040359701    N.am   1  noname   -0.175810
    7   C7         1.393179784     0.727869134     1.111469697     C.3   1  noname   -0.434767
    8   C8         2.369215145    -0.385247290    -0.824550699     C.3   1  noname   -0.603100
    9   H9        -3.140481528     0.778200492    -0.156166501       H   1  noname    0.206682
   10   H10       -2.741149954    -0.530170245    -1.302361334       H   1  noname    0.197945
   11   H11       -2.151947137     1.116045172    -1.601295610       H   1  noname    0.208028
   12   H12       -1.998305637    -1.598540895     0.821362780       H   1  noname    0.169268
   13   H13       -1.926811045    -0.183334535     1.897244049       H   1  noname    0.169941
   14   H14       -0.443704527    -1.087070032     1.503277937       H   1  noname    0.146901
   15   H15        1.923019665     0.181818285     1.898834459       H   1  noname    0.168799
   16   H16        2.001706317     1.596316193     0.822610598       H   1  noname    0.168561
   17   H17        0.443685501     1.090306659     1.500588619       H   1  noname    0.145603
   18   H18        2.741470821     0.530234980    -1.303168186       H   1  noname    0.197415
   19   H19        3.140540904    -0.777813382    -0.156564996       H   1  noname    0.206264
   20   H20        2.151992482    -1.115966377    -1.601574199       H   1  noname    0.207610


@<TRIPOS>BOND
    1      1      2    1
    2      2      3    1
    3      2      4    1
    4      4      5    2
    5      4      6    am
    6      6      7    1
    7      6      8    1
    8      1      9    1
    9      1     10    1
   10      1     11    1
   11      3     12    1
   12      3     13    1
   13      3     14    1
   14      7     15    1
   15      7     16    1
   16      7     17    1
   17      8     18    1
   18      8     19    1
   19      8     20    1
#
#	File Created by: Spartan'20 Export
#

@<TRIPOS>MOLECULE
M0230
23 23
SMALL
USER_CHARGES


@<TRIPOS>ATOM
    1   C1         2.779154276    -0.099920111    -1.237981268     C.3   1  noname   -0.508403
    2   N2         2.359786576     0.113854764     0.138034904   N.pl3   1  noname   -0.079252
    3   C3         3.372717185     0.606297941     1.056771636     C.3   1  noname   -0.516322
    4   C4         1.055132416     0.187091488     0.526840888     C.2   1  noname    0.829871
    5   O5         0.649220312     0.485941375     1.640448045     O.2   1  noname   -0.609959
    6   O6         0.228383898    -0.152369878    -0.531366015     O.3   1  noname   -0.478042
    7   C7        -1.142965712    -0.185667093    -0.258439327     C.2   1  noname    0.474002
    8   C8        -1.961737116     0.611703133    -1.052998516     C.2   1  noname   -0.321248
    9   C9        -3.345354518     0.543938261    -0.881966032     C.2   1  noname   -0.075867
   10   C10       -3.893951999    -0.308856198     0.078217629     C.2   1  noname   -0.219211
   11   C11       -3.053917172    -1.100333062     0.865756179     C.2   1  noname   -0.030078
   12   C12       -1.669603516    -1.049721051     0.699869911     C.2   1  noname   -0.356806
   13   H13        3.726594960    -0.646068730    -1.226727848       H   1  noname    0.187678
   14   H14        2.930630507     0.850982695    -1.764370687       H   1  noname    0.178169
   15   H15        2.035217254    -0.688765513    -1.767943705       H   1  noname    0.184506
   16   H16        3.760995101     1.577832972     0.728379584       H   1  noname    0.183152
   17   H17        4.201470865    -0.106210478     1.101036906       H   1  noname    0.175801
   18   H18        2.926337382     0.712138645     2.043388054       H   1  noname    0.192512
   19   H19       -1.509364813     1.267534840    -1.791493536       H   1  noname    0.181939
   20   H20       -3.992983598     1.162060258    -1.498328201       H   1  noname    0.137336
   21   H21       -4.971195940    -0.356765552     0.213010623       H   1  noname    0.147903
   22   H22       -3.477109302    -1.765734580     1.614068279       H   1  noname    0.128582
   23   H23       -1.007457045    -1.658964125     1.305792496       H   1  noname    0.193737


@<TRIPOS>BOND
    1      1      2    1
    2      2      3    1
    3      2      4    1
    4      4      5    2
    5      4      6    1
    6      6      7    1
    7      7      8    2
    8      8      9    1
    9      9     10    2
   10     10     11    1
   11     11     12    2
   12     12      7    1
   13      1     13    1
   14      1     14    1
   15      1     15    1
   16      3     16    1
   17      3     17    1
   18      3     18    1
   19      8     19    1
   20      9     20    1
   21     10     21    1
   22     11     22    1
   23     12     23    1
#
#	File Created by: Spartan'20 Export
#

@<TRIPOS>MOLECULE
M0231
22 22
SMALL
USER_CHARGES


@<TRIPOS>ATOM
    1   C1        -3.058100571    -0.706925825    -0.706500020     C.3   1  noname   -0.572962
    2   N2        -1.723308351    -0.515487311    -0.157873429   N.pl3   1  noname   -0.033803
    3   C3        -1.646835248    -0.605547960     1.293701736     C.3   1  noname   -0.445285
    4   C4        -0.828715630     0.193722937    -0.926485429     C.2   1  noname    0.542853
    5   O5        -1.133160966     0.664914407    -2.029630578     O.2   1  noname   -0.581179
    6   C6         0.573346857     0.315563473    -0.414342779     C.2   1  noname    0.077881
    7   C7         1.227832325     1.542434447    -0.577321406     C.2   1  noname   -0.199865
    8   C8         2.560085704     1.679062608    -0.190009752     C.2   1  noname   -0.112729
    9   C9         3.255142642     0.584662133     0.332704146     C.2   1  noname   -0.142706
   10   C10        2.612706826    -0.648454339     0.466654711     C.2   1  noname   -0.111919
   11   C11        1.274120485    -0.785545408     0.096010608     C.2   1  noname   -0.190696
   12   H12       -2.990235061    -0.765037643    -1.790881144       H   1  noname    0.214678
   13   H13       -3.471045448    -1.636206914    -0.305118878       H   1  noname    0.184363
   14   H14       -3.724319133     0.123071560    -0.439946531       H   1  noname    0.192389
   15   H15       -1.818351836    -1.637022998     1.618870962       H   1  noname    0.154727
   16   H16       -0.670175965    -0.280969928     1.645025631       H   1  noname    0.151897
   17   H17       -2.414730896     0.032922991     1.749179932       H   1  noname    0.166253
   18   H18        0.683084626     2.374007678    -1.016583680       H   1  noname    0.167211
   19   H19        3.061990843     2.636344679    -0.306710035       H   1  noname    0.134803
   20   H20        4.296584148     0.690387721     0.626497362       H   1  noname    0.139961
   21   H21        3.157679691    -1.506939792     0.851908408       H   1  noname    0.133202
   22   H22        0.776404958    -1.748956517     0.180850165       H   1  noname    0.130926


@<TRIPOS>BOND
    1      1      2    1
    2      2      3    1
    3      2      4    1
    4      4      5    2
    5      4      6    1
    6      6      7    2
    7      7      8    1
    8      8      9    2
    9      9     10    1
   10     10     11    2
   11     11      6    1
   12      1     12    1
   13      1     13    1
   14      1     14    1
   15      3     15    1
   16      3     16    1
   17      3     17    1
   18      7     18    1
   19      8     19    1
   20      9     20    1
   21     10     21    1
   22     11     22    1
#
#	File Created by: Spartan'20 Export
#

@<TRIPOS>MOLECULE
M0232
26 26
SMALL
USER_CHARGES


@<TRIPOS>ATOM
    1   C1         0.025224889     1.187095771    -2.433327371     C.3   1  noname   -0.436179
    2   N2        -0.382779370    -0.000394099    -1.684896705     N.3   1  noname   -0.395975
    3   C3         0.027327747    -1.186874782    -2.433767400     C.3   1  noname   -0.427229
    4   C4         0.171852314    -0.000342711    -0.319415522     C.3   1  noname    0.459143
    5   C5        -0.271227378    -1.251437791     0.446900462     C.3   1  noname   -0.302505
    6   C6         0.204033908    -1.247678650     1.900817104     C.3   1  noname   -0.245082
    7   C7        -0.262224715     0.000197333     2.642089211     C.3   1  noname   -0.096346
    8   C8         0.205181882     1.247433010     1.900481829     C.3   1  noname   -0.244915
    9   C9        -0.270115278     1.251310984     0.446569662     C.3   1  noname   -0.303586
   10   H10       -0.324349566     1.087196171    -3.463615577       H   1  noname    0.192559
   11   H11       -0.433301172     2.084275481    -2.018845697       H   1  noname    0.149789
   12   H12        1.121918937     1.328054686    -2.454024122       H   1  noname    0.132779
   13   H13       -0.323190565    -1.087799895    -3.463808507       H   1  noname    0.190490
   14   H14       -0.428811388    -2.085094196    -2.018976603       H   1  noname    0.147651
   15   H15        1.124324761    -1.325265370    -2.455164396       H   1  noname    0.130471
   16   H16        1.284480555    -0.000781502    -0.364377473       H   1  noname    0.022486
   17   H17       -1.367879925    -1.297634415     0.409975999       H   1  noname    0.125786
   18   H18        0.105031194    -2.156472969    -0.037414225       H   1  noname    0.113981
   19   H19       -0.153709629    -2.153427450     2.404627250       H   1  noname    0.096374
   20   H20        1.301430989    -1.290913070     1.922718814       H   1  noname    0.100971
   21   H21       -1.358762974     0.000715734     2.703363125       H   1  noname    0.089551
   22   H22        0.114145191     0.000172572     3.672121101       H   1  noname    0.061672
   23   H23       -0.151588523     2.153668932     2.404084856       H   1  noname    0.096376
   24   H24        1.302616508     1.289551848     1.922262277       H   1  noname    0.101027
   25   H25       -1.366725952     1.298617236     0.409597408       H   1  noname    0.126228
   26   H26        0.107097559     2.155827140    -0.037975502       H   1  noname    0.114484


@<TRIPOS>BOND
    1      1      2    1
    2      2      3    1
    3      2      4    1
    4      4      5    1
    5      5      6    1
    6      6      7    1
    7      7      8    1
    8      8      9    1
    9      9      4    1
   10      1     10    1
   11      1     11    1
   12      1     12    1
   13      3     13    1
   14      3     14    1
   15      3     15    1
   16      4     16    1
   17      5     17    1
   18      5     18    1
   19      6     19    1
   20      6     20    1
   21      7     21    1
   22      7     22    1
   23      8     23    1
   24      8     24    1
   25      9     25    1
   26      9     26    1
#
#	File Created by: Spartan'20 Export
#

@<TRIPOS>MOLECULE
M0233
20 20
SMALL
USER_CHARGES


@<TRIPOS>ATOM
    1   C1        -1.952534868     0.509837844    -1.225591614     C.3   1  noname   -0.496123
    2   N2        -1.775753113     0.015056993     0.128182176   N.pl3   1  noname   -0.129691
    3   C3        -2.786609467    -0.918775244     0.594004139     C.3   1  noname   -0.432021
    4   C4        -0.482542756    -0.181914384     0.556728161     C.2   1  noname    0.285529
    5   N5         0.540353164     0.210195091    -0.119562764     N.2   1  noname   -0.430356
    6   C6         1.812774821     0.043575506     0.507772875     C.3   1  noname    0.098829
    7   C7         2.844814660     1.109445864     0.251001403     C.3   1  noname   -0.420489
    8   C8         2.982294735    -0.241613545    -0.395031547     C.3   1  noname   -0.354996
    9   H9        -2.982426868     0.858006938    -1.339649236       H   1  noname    0.189228
   10   H10       -1.260099214     1.335110059    -1.389831590       H   1  noname    0.172485
   11   H11       -1.748372457    -0.265771854    -1.976242774       H   1  noname    0.175678
   12   H12       -2.580734232    -1.190035980     1.632101107       H   1  noname    0.146182
   13   H13       -3.768750201    -0.439507976     0.552815098       H   1  noname    0.167479
   14   H14       -2.821520922    -1.838406919    -0.008838261       H   1  noname    0.166001
   15   H15       -0.412126711    -0.657853882     1.545995907       H   1  noname    0.091041
   16   H16        1.828201127    -0.425831143     1.496342148       H   1  noname    0.083887
   17   H17        2.526634483     1.935122276    -0.375788185       H   1  noname    0.191643
   18   H18        3.522822724     1.374133240     1.055967692       H   1  noname    0.168850
   19   H19        2.757957017    -0.318004112    -1.453171356       H   1  noname    0.174031
   20   H20        3.755618080    -0.912768771    -0.037203378       H   1  noname    0.152812


@<TRIPOS>BOND
    1      1      2    1
    2      2      3    1
    3      2      4    1
    4      4      5    2
    5      5      6    1
    6      6      7    1
    7      7      8    1
    8      8      6    1
    9      1      9    1
   10      1     10    1
   11      1     11    1
   12      3     12    1
   13      3     13    1
   14      3     14    1
   15      4     15    1
   16      6     16    1
   17      7     17    1
   18      7     18    1
   19      8     19    1
   20      8     20    1
#
#	File Created by: Spartan'20 Export
#

@<TRIPOS>MOLECULE
M0234
26 26
SMALL
USER_CHARGES


@<TRIPOS>ATOM
    1   C1        -2.867656853     0.997837598    -0.409210582     C.3   1  noname   -0.317680
    2   N2        -2.830407763    -0.213039544     0.405697417   N.pl3   1  noname   -0.126803
    3   C3        -4.150355379    -0.818364569     0.555611385     C.3   1  noname   -0.546872
    4   C4        -1.760149493    -1.093663431     0.378628694     C.2   1  noname    0.373559
    5   N5        -0.498686155    -0.949495683     0.166260360     N.2   1  noname   -0.694698
    6   C6         0.128929660     0.333714660    -0.084194799     C.3   1  noname    0.356209
    7   C7         1.639767992     0.199614242    -0.078302719     C.2   1  noname    0.007638
    8   C8         2.422090264     1.359633513    -0.095604184     C.2   1  noname   -0.265998
    9   C9         3.810180240     1.251001686    -0.125910479     C.2   1  noname    0.117345
   10   C10        4.447350227     0.011170616    -0.139521917     C.2   1  noname   -0.164251
   11   C11        3.645023219    -1.128031124    -0.121039045     C.2   1  noname    0.051292
   12   C12        2.252885992    -1.054150953    -0.094829688     C.2   1  noname   -0.105554
   13   Cl13       4.414878507    -2.690865774    -0.138418668      Cl   1  noname   -0.102174
   14   Cl14       4.781382609     2.697625057    -0.146226699      Cl   1  noname   -0.107785
   15   H15       -1.979371752     1.606248195    -0.267642651       H   1  noname    0.095368
   16   H16       -3.731198232     1.589592583    -0.094186936       H   1  noname    0.152304
   17   H17       -2.978758017     0.767704235    -1.478066972       H   1  noname    0.144726
   18   H18       -4.075737066    -1.726384356     1.155347585       H   1  noname    0.182194
   19   H19       -4.602986210    -1.069467545    -0.413751046       H   1  noname    0.185538
   20   H20       -4.810472359    -0.119603887     1.075455350       H   1  noname    0.193111
   21   H21       -2.066460709    -2.109325465     0.644090766       H   1  noname    0.093501
   22   H22       -0.150632621     1.076964819     0.677500631       H   1  noname    0.033148
   23   H23       -0.166616966     0.747776542    -1.059484457       H   1  noname    0.028466
   24   H24        1.958353420     2.344735396    -0.080603907       H   1  noname    0.138979
   25   H25        5.530061252    -0.063304392    -0.159624814       H   1  noname    0.148471
   26   H26        1.638586193    -1.947922417    -0.071972626       H   1  noname    0.129966


@<TRIPOS>BOND
    1      1      2    1
    2      2      3    1
    3      2      4    1
    4      4      5    2
    5      5      6    1
    6      6      7    1
    7      7      8    2
    8      8      9    1
    9      9     10    2
   10     10     11    1
   11     11     12    2
   12     11     13    1
   13      9     14    1
   14     12      7    1
   15      1     15    1
   16      1     16    1
   17      1     17    1
   18      3     18    1
   19      3     19    1
   20      3     20    1
   21      4     21    1
   22      6     22    1
   23      6     23    1
   24      8     24    1
   25     10     25    1
   26     12     26    1
#
#	File Created by: Spartan'20 Export
#

@<TRIPOS>MOLECULE
M0235
26 26
SMALL
USER_CHARGES


@<TRIPOS>ATOM
    1   C1        -4.174356515     0.501533040    -0.711895093     C.3   1  noname   -0.553281
    2   N2        -2.902253698     0.299824182    -0.030583320   N.pl3   1  noname   -0.065464
    3   C3        -2.585132681     1.349743606     0.925902389     C.3   1  noname   -0.371316
    4   C4        -1.960161274    -0.486137068    -0.671473145     C.2   1  noname    0.367458
    5   N5        -0.697524887    -0.689246212    -0.526308536     N.2   1  noname   -0.726883
    6   C6         0.149717166    -0.000989810     0.431874853     C.3   1  noname    0.439440
    7   C7         1.610869297    -0.308972566     0.168798910     C.2   1  noname   -0.028043
    8   C8         2.002236254    -1.331464884    -0.698670706     C.2   1  noname   -0.092630
    9   C9         3.353709014    -1.615192246    -0.902627691     C.2   1  noname   -0.214318
   10   C10        4.319544624    -0.877196271    -0.220768627     C.2   1  noname    0.145371
   11   C11        3.953263661     0.145502758     0.653551788     C.2   1  noname   -0.140787
   12   C12        2.599409974     0.419635471     0.841706967     C.2   1  noname   -0.244017
   13   Cl13       6.009747152    -1.228611599    -0.470696465      Cl   1  noname   -0.155938
   14   H14       -4.979358354     0.558776338     0.027462883       H   1  noname    0.184675
   15   H15       -4.181666178     1.426255857    -1.305705482       H   1  noname    0.190220
   16   H16       -4.376677165    -0.340974420    -1.375169534       H   1  noname    0.180777
   17   H17       -1.808317971     1.023931362     1.612029511       H   1  noname    0.112035
   18   H18       -2.272615112     2.281192760     0.436155510       H   1  noname    0.148337
   19   H19       -3.486061360     1.558184342     1.511133357       H   1  noname    0.158019
   20   H20       -2.432858215    -1.098140610    -1.443039114       H   1  noname    0.083291
   21   H21       -0.087441050    -0.323192588     1.457749183       H   1  noname    0.001148
   22   H22        0.023950114     1.090806027     0.406371338       H   1  noname    0.010223
   23   H23        1.234224534    -1.888136645    -1.226393243       H   1  noname    0.129750
   24   H24        3.657669418    -2.405512048    -1.584525317       H   1  noname    0.162432
   25   H25        4.716970339     0.716043322     1.174109839       H   1  noname    0.151857
   26   H26        2.313112915     1.222337902     1.521009748       H   1  noname    0.127642


@<TRIPOS>BOND
    1      1      2    1
    2      2      3    1
    3      2      4    1
    4      4      5    2
    5      5      6    1
    6      6      7    1
    7      7      8    2
    8      8      9    1
    9      9     10    2
   10     10     11    1
   11     11     12    2
   12     10     13    1
   13     12      7    1
   14      1     14    1
   15      1     15    1
   16      1     16    1
   17      3     17    1
   18      3     18    1
   19      3     19    1
   20      4     20    1
   21      6     21    1
   22      6     22    1
   23      8     23    1
   24      9     24    1
   25     11     25    1
   26     12     26    1
#
#	File Created by: Spartan'20 Export
#

@<TRIPOS>MOLECULE
M0236
26 26
SMALL
USER_CHARGES


@<TRIPOS>ATOM
    1   C1        -2.885410412     1.278410720    -1.082746395     C.3   1  noname   -0.477780
    2   N2        -2.902485190     0.434930344     0.100389246   N.pl3   1  noname   -0.164036
    3   C3        -3.891920875    -0.627012612     0.117509249     C.3   1  noname   -0.452908
    4   C4        -1.711472778     0.226032934     0.745670583     C.2   1  noname    0.402406
    5   N5        -0.633077643     0.860769329     0.443653622     N.2   1  noname   -0.465568
    6   C6         0.513247070     0.593442216     1.296578421     C.3   1  noname   -0.256839
    7   C7         1.688116612     0.068861312     0.497938865     C.2   1  noname    0.375313
    8   C8         1.853244762     0.407109162    -0.850134350     C.2   1  noname   -0.273537
    9   C9         2.965368852    -0.051581281    -1.556485690     C.2   1  noname   -0.082016
   10   C10        3.933562286    -0.841718887    -0.932746080     C.2   1  noname   -0.289310
   11   C11        3.759655364    -1.171174818     0.410942479     C.2   1  noname    0.269682
   12   C12        2.651021532    -0.724788267     1.128979942     C.2   1  noname   -0.452394
   13   Cl13       4.945250369    -2.171788628     1.209794611      Cl   1  noname   -0.156863
   14   H14       -3.909435586     1.582947534    -1.310015777       H   1  noname    0.191788
   15   H15       -2.462430739     0.755694355    -1.952221320       H   1  noname    0.173914
   16   H16       -2.272098328     2.155874570    -0.879472867       H   1  noname    0.164709
   17   H17       -3.747078110    -1.347232980    -0.700721543       H   1  noname    0.173509
   18   H18       -3.834813338    -1.161285312     1.068295239       H   1  noname    0.149756
   19   H19       -4.892345196    -0.193585529     0.025672309       H   1  noname    0.176986
   20   H20       -1.776829601    -0.498710829     1.572084096       H   1  noname    0.081843
   21   H21        0.282680515    -0.120725442     2.107673421       H   1  noname    0.100130
   22   H22        0.807067165     1.534793768     1.783621801       H   1  noname    0.137920
   23   H23        1.093589518     1.011551192    -1.336601717       H   1  noname    0.159576
   24   H24        3.086634873     0.209683074    -2.605582353       H   1  noname    0.144503
   25   H25        4.801885438    -1.204041464    -1.475591468       H   1  noname    0.173406
   26   H26        2.538073439    -1.006454463     2.173515674       H   1  noname    0.195807


@<TRIPOS>BOND
    1      1      2    1
    2      2      3    1
    3      2      4    1
    4      4      5    2
    5      5      6    1
    6      6      7    1
    7      7      8    2
    8      8      9    1
    9      9     10    2
   10     10     11    1
   11     11     12    2
   12     11     13    1
   13     12      7    1
   14      1     14    1
   15      1     15    1
   16      1     16    1
   17      3     17    1
   18      3     18    1
   19      3     19    1
   20      4     20    1
   21      6     21    1
   22      6     22    1
   23      8     23    1
   24      9     24    1
   25     10     25    1
   26     12     26    1
#
#	File Created by: Spartan'20 Export
#

@<TRIPOS>MOLECULE
M0237
26 26
SMALL
USER_CHARGES


@<TRIPOS>ATOM
    1   C1        -2.873384432    -0.788643470     0.662376649     C.3   1  noname   -0.648766
    2   N2        -2.711128064     0.555475044     0.140666181   N.pl3   1  noname    0.240021
    3   C3        -3.862439346     1.109854866    -0.543583538     C.3   1  noname   -0.649977
    4   C4        -1.590890327     1.340882448     0.326326793     C.2   1  noname    0.160638
    5   N5        -0.363687560     1.060604357     0.596509910     N.2   1  noname   -0.591412
    6   C6         0.143215250    -0.303605899     0.567879914     C.3   1  noname    0.219139
    7   C7         1.586713273    -0.313837745     0.108391199     C.2   1  noname    0.160406
    8   C8         2.424433583     0.782817244     0.337786030     C.2   1  noname   -0.197810
    9   C9         3.764814782     0.737891440    -0.049703753     C.2   1  noname   -0.081210
   10   C10        4.288915410    -0.407688589    -0.653456640     C.2   1  noname   -0.236302
   11   C11        3.458480757    -1.506809379    -0.881964512     C.2   1  noname   -0.013403
   12   C12        2.116858153    -1.458396259    -0.498898117     C.2   1  noname   -0.343620
   13   H13       -2.151860084    -0.965901047     1.457802480       H   1  noname    0.209416
   14   H14       -2.762115368    -1.563962756    -0.106689630       H   1  noname    0.183516
   15   H15       -3.879058085    -0.876860048     1.091331867       H   1  noname    0.200179
   16   H16       -4.760722736     1.023966011     0.079701601       H   1  noname    0.188553
   17   H17       -3.686773204     2.166839521    -0.762468939       H   1  noname    0.196870
   18   H18       -4.049826377     0.591783328    -1.492968159       H   1  noname    0.198548
   19   H19       -1.821630884     2.407067219     0.224233204       H   1  noname    0.100324
   20   H20       -0.434644360    -0.963975632    -0.094580440       H   1  noname    0.036499
   21   H21        0.097811147    -0.745238597     1.575610391       H   1  noname    0.024310
   22   H22        2.002552808     1.674667714     0.791331508       H   1  noname    0.125985
   23   H23        4.405464994     1.599269539     0.126566535       H   1  noname    0.124118
   24   H24        5.333433501    -0.439541808    -0.954917972       H   1  noname    0.143344
   25   H25        3.854594195    -2.401281322    -1.358472900       H   1  noname    0.112947
   26   H26        1.470872973    -2.315376181    -0.688809661       H   1  noname    0.137688


@<TRIPOS>BOND
    1      1      2    1
    2      2      3    1
    3      2      4    1
    4      4      5    2
    5      5      6    1
    6      6      7    1
    7      7      8    2
    8      8      9    1
    9      9     10    2
   10     10     11    1
   11     11     12    2
   12     12      7    1
   13      1     13    1
   14      1     14    1
   15      1     15    1
   16      3     16    1
   17      3     17    1
   18      3     18    1
   19      4     19    1
   20      6     20    1
   21      6     21    1
   22      8     22    1
   23      9     23    1
   24     10     24    1
   25     11     25    1
   26     12     26    1
#
#	File Created by: Spartan'20 Export
#

@<TRIPOS>MOLECULE
M0238
23 23
SMALL
USER_CHARGES


@<TRIPOS>ATOM
    1   C1        -3.291150861    -0.898230830     0.954835873     C.3   1  noname   -0.537976
    2   N2        -2.413939503     0.055452312     0.301746788   N.pl3   1  noname   -0.021571
    3   C3        -2.988168475     0.853823685    -0.768789324     C.3   1  noname   -0.551838
    4   C4        -1.069376907    -0.156555255     0.301802401     C.2   1  noname    0.367227
    5   N5        -0.276960893     0.401142551    -0.557964098     N.2   1  noname   -0.599263
    6   C6         1.101870940     0.234168129    -0.336254142     C.2   1  noname    0.431563
    7   C7         1.702737455     0.415079697     0.920590551     C.2   1  noname   -0.314697
    8   C8         3.080246229     0.262433885     1.083516383     C.2   1  noname   -0.152657
    9   C9         3.864426076    -0.055842471    -0.024690783     C.2   1  noname    0.084401
   10   C10        3.294481506    -0.218962379    -1.289636375     C.2   1  noname   -0.143567
   11   C11        1.919962373    -0.058072843    -1.439583513     C.2   1  noname   -0.298692
   12   Br12       5.749764100    -0.257330328     0.187615497      Br   1  noname   -0.128893
   13   H13       -2.747487693    -1.399319180     1.757292739       H   1  noname    0.172899
   14   H14       -3.668682665    -1.656844857     0.255728692       H   1  noname    0.193234
   15   H15       -4.145413720    -0.372195956     1.390651165       H   1  noname    0.187051
   16   H16       -3.110332765     0.271271585    -1.691411569       H   1  noname    0.191778
   17   H17       -2.322811394     1.690847768    -0.976740044       H   1  noname    0.194262
   18   H18       -3.963499291     1.223599213    -0.441371887       H   1  noname    0.199356
   19   H19       -0.716448442    -0.818444618     1.104478053       H   1  noname    0.073207
   20   H20        1.090692749     0.707543111     1.770910664       H   1  noname    0.158795
   21   H21        3.539327485     0.408897137     2.057801152       H   1  noname    0.159621
   22   H22        3.918112516    -0.457794540    -2.146066741       H   1  noname    0.155556
   23   H23        1.452651179    -0.174665814    -2.414461482       H   1  noname    0.180205


@<TRIPOS>BOND
    1      1      2    1
    2      2      3    1
    3      2      4    1
    4      4      5    2
    5      5      6    1
    6      6      7    2
    7      7      8    1
    8      8      9    2
    9      9     10    1
   10     10     11    2
   11      9     12    1
   12     11      6    1
   13      1     13    1
   14      1     14    1
   15      1     15    1
   16      3     16    1
   17      3     17    1
   18      3     18    1
   19      4     19    1
   20      7     20    1
   21      8     21    1
   22     10     22    1
   23     11     23    1
#
#	File Created by: Spartan'20 Export
#

@<TRIPOS>MOLECULE
M0239
24 24
SMALL
USER_CHARGES


@<TRIPOS>ATOM
    1   C1         2.572116893    -2.597240212     0.924546554     C.3   1  noname   -0.555984
    2   N2         2.305384122    -1.341029896     0.246714742   N.pl3   1  noname    0.009794
    3   C3         3.414562102    -0.410836362     0.119447828     C.3   1  noname   -0.548348
    4   C4         1.038053834    -0.851739257     0.212208575     C.2   1  noname    0.339519
    5   N5         0.779401795     0.397533435    -0.017740359     N.2   1  noname   -0.622539
    6   C6        -0.570250669     0.735172666    -0.199074171     C.2   1  noname    0.541575
    7   C7        -1.442167421    -0.003865735    -1.017998658     C.2   1  noname   -0.386018
    8   C8        -2.769239184     0.386491623    -1.178792933     C.2   1  noname   -0.144262
    9   C9        -3.238474787     1.541234144    -0.536439586     C.2   1  noname    0.072987
   10   C10       -2.369799581     2.302888180     0.263426542     C.2   1  noname   -0.150524
   11   C11       -1.046811242     1.906544994     0.414354677     C.2   1  noname   -0.364626
   12   C12       -4.603577932     1.948349085    -0.703703747     C.1   1  noname    0.226025
   13   N13       -5.730716861     2.282764307    -0.842015852     N.1   1  noname   -0.416660
   14   H14        3.374892928    -3.129038181     0.407230926       H   1  noname    0.194206
   15   H15        1.673832348    -3.218237579     0.905521979       H   1  noname    0.175928
   16   H16        2.872004150    -2.443196256     1.969690669       H   1  noname    0.198753
   17   H17        3.151780617     0.347353485    -0.617281344       H   1  noname    0.197991
   18   H18        4.298366916    -0.963321525    -0.208117726       H   1  noname    0.198302
   19   H19        3.633127678     0.088934569     1.071931565       H   1  noname    0.193800
   20   H20        0.257386426    -1.606634435     0.377767036       H   1  noname    0.090131
   21   H21       -1.065925192    -0.873570173    -1.552105890       H   1  noname    0.176165
   22   H22       -3.439709394    -0.187543051    -1.814139588       H   1  noname    0.186965
   23   H23       -2.735787287     3.203652360     0.750097354       H   1  noname    0.188342
   24   H24       -0.358450260     2.485333814     1.024471407       H   1  noname    0.198478


@<TRIPOS>BOND
    1      1      2    1
    2      2      3    1
    3      2      4    1
    4      4      5    2
    5      5      6    1
    6      6      7    2
    7      7      8    1
    8      8      9    2
    9      9     10    1
   10     10     11    2
   11      9     12    1
   12     12     13    3
   13     11      6    1
   14      1     14    1
   15      1     15    1
   16      1     16    1
   17      3     17    1
   18      3     18    1
   19      3     19    1
   20      4     20    1
   21      7     21    1
   22      8     22    1
   23     10     23    1
   24     11     24    1
#
#	File Created by: Spartan'20 Export
#

@<TRIPOS>MOLECULE
M0240
26 26
SMALL
USER_CHARGES


@<TRIPOS>ATOM
    1   C1         3.642721513     1.037628925     0.608147071     C.3   1  noname   -0.547068
    2   N2         3.080337840    -0.033506368    -0.196260792   N.pl3   1  noname   -0.002911
    3   C3         3.958322588    -1.147256451    -0.507631045     C.3   1  noname   -0.521304
    4   C4         1.733987856    -0.229507317    -0.171547778     C.2   1  noname    0.348423
    5   N5         0.924319907     0.560219700     0.459268155     N.2   1  noname   -0.626165
    6   C6        -0.448684599     0.345092299     0.253806208     C.2   1  noname    0.546785
    7   C7        -1.008847879     0.159783966    -1.021421521     C.2   1  noname   -0.385953
    8   C8        -2.382368075    -0.018538959    -1.172518275     C.2   1  noname   -0.083608
    9   C9        -3.211599652    -0.006717436    -0.048677719     C.2   1  noname   -0.103104
   10   C10       -2.670804659     0.198866845     1.224910952     C.2   1  noname   -0.070295
   11   C11       -1.300520520     0.381382964     1.370662081     C.2   1  noname   -0.377476
   12   C12       -4.689799657    -0.113921996    -0.222829129     C.3   1  noname    0.591544
   13   F13       -5.294251476    -0.637790233     0.870639685       F   1  noname   -0.219185
   14   F14       -5.262957551     1.096080989    -0.442531474       F   1  noname   -0.213456
   15   F15       -5.021072441    -0.897157170    -1.279727946       F   1  noname   -0.222679
   16   H16        4.599335051     1.339670032     0.174619173       H   1  noname    0.195512
   17   H17        3.801950575     0.719847256     1.647151092       H   1  noname    0.192243
   18   H18        2.946373279     1.875256175     0.605841023       H   1  noname    0.197162
   19   H19        3.433575404    -1.854714073    -1.153999457       H   1  noname    0.169131
   20   H20        4.287414742    -1.674511531     0.399289977       H   1  noname    0.188300
   21   H21        4.842851787    -0.782004821    -1.036237031       H   1  noname    0.185241
   22   H22        1.394504520    -1.101566299    -0.748997184       H   1  noname    0.078783
   23   H23       -0.364668589     0.190312843    -1.897238798       H   1  noname    0.167411
   24   H24       -2.809678981    -0.162276498    -2.161297092       H   1  noname    0.163569
   25   H25       -3.320657539     0.212454793     2.095238308       H   1  noname    0.158697
   26   H26       -0.859783446     0.542872366     2.351341517       H   1  noname    0.190402


@<TRIPOS>BOND
    1      1      2    1
    2      2      3    1
    3      2      4    1
    4      4      5    2
    5      5      6    1
    6      6      7    2
    7      7      8    1
    8      8      9    2
    9      9     10    1
   10     10     11    2
   11      9     12    1
   12     12     13    1
   13     12     14    1
   14     12     15    1
   15     11      6    1
   16      1     16    1
   17      1     17    1
   18      1     18    1
   19      3     19    1
   20      3     20    1
   21      3     21    1
   22      4     22    1
   23      7     23    1
   24      8     24    1
   25     10     25    1
   26     11     26    1
#
#	File Created by: Spartan'20 Export
#

@<TRIPOS>MOLECULE
M0241
23 23
SMALL
USER_CHARGES


@<TRIPOS>ATOM
    1   C1        -3.391382108     0.866548991    -0.346646462     C.3   1  noname   -0.501218
    2   N2        -2.411770933    -0.106405873     0.103048410   N.pl3   1  noname   -0.053994
    3   C3        -2.777471503    -0.917150181     1.250951353     C.3   1  noname   -0.533911
    4   C4        -1.088008285     0.134816204    -0.122664943     C.2   1  noname    0.372208
    5   N5        -0.149788333    -0.413255088     0.580392948     N.2   1  noname   -0.585620
    6   C6         1.169295365    -0.217880913     0.125492833     C.2   1  noname    0.357583
    7   C7         1.543970069    -0.373299942    -1.220449835     C.2   1  noname   -0.259244
    8   C8         2.870381200    -0.193058634    -1.616844556     C.2   1  noname   -0.299557
    9   C9         3.816842879     0.124517668    -0.652645595     C.2   1  noname    0.380269
   10   C10        3.484738281     0.264421639     0.691568836     C.2   1  noname   -0.300422
   11   C11        2.159630244     0.077543960     1.075999156     C.2   1  noname   -0.227923
   12   F12        5.112896707     0.290095744    -1.031370164       F   1  noname   -0.252414
   13   H13       -3.598909269     1.627875584     0.418518079       H   1  noname    0.184299
   14   H14       -4.327839412     0.357250768    -0.592412921       H   1  noname    0.182148
   15   H15       -3.021859457     1.365973490    -1.244682843       H   1  noname    0.164202
   16   H16       -3.776542418    -1.328663217     1.087997126       H   1  noname    0.195383
   17   H17       -2.775207189    -0.331215390     2.180323593       H   1  noname    0.187304
   18   H18       -2.050289626    -1.722491695     1.351062009       H   1  noname    0.190938
   19   H19       -0.891358042     0.811631173    -0.966070475       H   1  noname    0.073037
   20   H20        0.797058161    -0.669208998    -1.954284666       H   1  noname    0.157597
   21   H21        3.179058620    -0.318661401    -2.650447351       H   1  noname    0.197827
   22   H22        4.261536871     0.498640676     1.415056877       H   1  noname    0.196387
   23   H23        1.865018177     0.171975436     2.118108590       H   1  noname    0.175122


@<TRIPOS>BOND
    1      1      2    1
    2      2      3    1
    3      2      4    1
    4      4      5    2
    5      5      6    1
    6      6      7    2
    7      7      8    1
    8      8      9    2
    9      9     10    1
   10     10     11    2
   11      9     12    1
   12     11      6    1
   13      1     13    1
   14      1     14    1
   15      1     15    1
   16      3     16    1
   17      3     17    1
   18      3     18    1
   19      4     19    1
   20      7     20    1
   21      8     21    1
   22     10     22    1
   23     11     23    1
#
#	File Created by: Spartan'20 Export
#

@<TRIPOS>MOLECULE
M0242
25 25
SMALL
USER_CHARGES


@<TRIPOS>ATOM
    1   C1         3.519571530    -0.897513219     0.102848428     C.3   1  noname   -0.550680
    2   N2         2.843926216     0.332147743    -0.275307354   N.pl3   1  noname    0.022736
    3   C3         3.585654563     1.267454805    -1.101529283     C.3   1  noname   -0.533985
    4   C4         1.486108071     0.356550798    -0.278546329     C.2   1  noname    0.347735
    5   N5         0.770256147    -0.648309335     0.119913719     N.2   1  noname   -0.616400
    6   C6        -0.610239939    -0.429991722     0.231511189     C.2   1  noname    0.514731
    7   C7        -1.159219191     0.710522061     0.845099421     C.2   1  noname   -0.353760
    8   C8        -2.538636224     0.873542295     0.947883560     C.2   1  noname   -0.087495
    9   C9        -3.365564562    -0.130985990     0.452771744     C.2   1  noname   -0.082878
   10   C10       -2.857306040    -1.288318313    -0.137114031     C.2   1  noname   -0.089600
   11   C11       -1.478333528    -1.434885421    -0.228893430     C.2   1  noname   -0.330787
   12   N12       -4.818267892     0.031294556     0.560378174       N   1  noname    0.788992
   13   O13       -5.537660778    -0.881346975     0.118789763       O   1  noname   -0.470952
   14   O14       -5.248367723     1.073991347     1.084069784     O.2   1  noname   -0.474948
   15   H15        3.570155786    -1.604028812    -0.735389469       H   1  noname    0.192635
   16   H16        4.532731514    -0.653777152     0.430378380       H   1  noname    0.197996
   17   H17        2.965249381    -1.364649257     0.916493130       H   1  noname    0.196003
   18   H18        4.508933364     1.554486717    -0.590170730       H   1  noname    0.186503
   19   H19        3.845263817     0.835040739    -2.076651587       H   1  noname    0.193411
   20   H20        2.985144010     2.164535794    -1.264575495       H   1  noname    0.171542
   21   H21        1.051343928     1.301758073    -0.630757222       H   1  noname    0.078948
   22   H22       -0.496316828     1.461662403     1.267884361       H   1  noname    0.164412
   23   H23       -2.974094916     1.747945631     1.419407230       H   1  noname    0.177001
   24   H24       -3.535777709    -2.051803906    -0.501316012       H   1  noname    0.175779
   25   H25       -1.044552997    -2.325322859    -0.677177940       H   1  noname    0.183064


@<TRIPOS>BOND
    1      1      2    1
    2      2      3    1
    3      2      4    1
    4      4      5    2
    5      5      6    1
    6      6      7    2
    7      7      8    1
    8      8      9    2
    9      9     10    1
   10     10     11    2
   11      9     12    1
   12     12     13    1
   13     12     14    2
   14     11      6    1
   15      1     15    1
   16      1     16    1
   17      1     17    1
   18      3     18    1
   19      3     19    1
   20      3     20    1
   21      4     21    1
   22      7     22    1
   23      8     23    1
   24     10     24    1
   25     11     25    1
#
#	File Created by: Spartan'20 Export
#

@<TRIPOS>MOLECULE
M0243
31 31
SMALL
USER_CHARGES


@<TRIPOS>ATOM
    1   C1         4.691272264    -0.635274226     0.020107083     C.3   1  noname   -0.526403
    2   N2         3.820742677    -0.212432826     1.103400917   N.pl3   1  noname   -0.082642
    3   C3         4.428225811     0.599160265     2.141667918     C.3   1  noname   -0.512412
    4   C4         2.492365863    -0.041513642     0.828204155     C.2   1  noname    0.394108
    5   N5         1.973426987    -0.351348775    -0.315285340     N.2   1  noname   -0.596277
    6   C6         0.566397606    -0.295987304    -0.396682335     C.2   1  noname    0.382283
    7   C7        -0.019908461     0.256638956    -1.542646838     C.2   1  noname   -0.261224
    8   C8        -1.401424703     0.333076208    -1.683107338     C.2   1  noname   -0.313991
    9   C9        -2.267603993    -0.167052898    -0.686467170     C.2   1  noname    0.390945
   10   C10       -1.672960869    -0.748547685     0.450729721     C.2   1  noname   -0.325967
   11   C11       -0.287067240    -0.813307075     0.588441306     C.2   1  noname   -0.281590
   12   N12       -3.664461895    -0.150462470    -0.855532103   N.pl3   1  noname   -0.215560
   13   C13       -4.461642499    -0.284221917     0.354823991     C.3   1  noname   -0.485045
   14   C14       -4.189950415     0.824677712    -1.800985337     C.3   1  noname   -0.476050
   15   H15        4.178680783    -1.400162804    -0.560625384       H   1  noname    0.189926
   16   H16        5.611123539    -1.042573547     0.449135675       H   1  noname    0.192480
   17   H17        4.942805621     0.198156912    -0.650797243       H   1  noname    0.185780
   18   H18        4.809307712     1.554874382     1.754315774       H   1  noname    0.185781
   19   H19        5.260587553     0.050829905     2.592443742       H   1  noname    0.185547
   20   H20        3.689253554     0.807775383     2.918805221       H   1  noname    0.166056
   21   H21        1.905129503     0.348441759     1.671304953       H   1  noname    0.066144
   22   H22        0.631482746     0.645567344    -2.322228727       H   1  noname    0.173463
   23   H23       -1.798378602     0.785678235    -2.585091098       H   1  noname    0.183156
   24   H24       -2.283958986    -1.170506415     1.240942848       H   1  noname    0.190129
   25   H25        0.138041936    -1.308465694     1.459706642       H   1  noname    0.152088
   26   H26       -4.243803447     0.492316472     1.105497492       H   1  noname    0.162891
   27   H27       -5.516818187    -0.222693802     0.082721132       H   1  noname    0.197551
   28   H28       -4.299688970    -1.263021646     0.811212996       H   1  noname    0.160908
   29   H29       -3.910580502     1.861284109    -1.554169933       H   1  noname    0.163605
   30   H30       -3.841865681     0.601878469    -2.811807060       H   1  noname    0.160190
   31   H31       -5.278729704     0.747216615    -1.808035659       H   1  noname    0.194132


@<TRIPOS>BOND
    1      1      2    1
    2      2      3    1
    3      2      4    1
    4      4      5    2
    5      5      6    1
    6      6      7    2
    7      7      8    1
    8      8      9    2
    9      9     10    1
   10     10     11    2
   11      9     12    1
   12     12     13    1
   13     12     14    1
   14     11      6    1
   15      1     15    1
   16      1     16    1
   17      1     17    1
   18      3     18    1
   19      3     19    1
   20      3     20    1
   21      4     21    1
   22      7     22    1
   23      8     23    1
   24     10     24    1
   25     11     25    1
   26     13     26    1
   27     13     27    1
   28     13     28    1
   29     14     29    1
   30     14     30    1
   31     14     31    1
#
#	File Created by: Spartan'20 Export
#

@<TRIPOS>MOLECULE
M0244
27 27
SMALL
USER_CHARGES


@<TRIPOS>ATOM
    1   C1        -3.852686233     1.246400511    -0.157467016     C.3   1  noname   -0.505346
    2   N2        -3.352160905    -0.115967542    -0.228948678   N.pl3   1  noname   -0.054683
    3   C3        -4.178586579    -1.079068901    -0.932396495     C.3   1  noname   -0.466820
    4   C4        -2.000957669    -0.308065727    -0.180187369     C.2   1  noname    0.351059
    5   N5        -1.170398690     0.661543043     0.031484596     N.2   1  noname   -0.582842
    6   C6         0.177430317     0.297522919     0.232482323     C.2   1  noname    0.338485
    7   C7         0.573404904    -0.757045476     1.075333695     C.2   1  noname   -0.199605
    8   C8         1.920567610    -1.056565278     1.251576979     C.2   1  noname   -0.392741
    9   C9         2.904086391    -0.298555797     0.604223033     C.2   1  noname    0.486965
   10   C10        2.526659172     0.768621636    -0.220059444     C.2   1  noname   -0.339379
   11   C11        1.172084438     1.065415657    -0.384407185     C.2   1  noname   -0.248516
   12   O12        4.200134541    -0.680583383     0.855900671     O.3   1  noname   -0.367879
   13   C13        5.219921281     0.057051613     0.193450833     C.3   1  noname   -0.275323
   14   H14       -4.905540931     1.216570346     0.134941744       H   1  noname    0.185362
   15   H15       -3.273738623     1.792407506     0.586717063       H   1  noname    0.181063
   16   H16       -3.756538686     1.768822612    -1.118607012       H   1  noname    0.179029
   17   H17       -4.323582351    -0.809688074    -1.987704195       H   1  noname    0.174404
   18   H18       -3.708276391    -2.061836078    -0.883979453       H   1  noname    0.154655
   19   H19       -5.159848643    -1.139969631    -0.453569911       H   1  noname    0.168696
   20   H20       -1.689824978    -1.354670192    -0.305027748       H   1  noname    0.074535
   21   H21       -0.180740791    -1.322749559     1.618431481       H   1  noname    0.146316
   22   H22        2.238745962    -1.862685677     1.907139738       H   1  noname    0.199751
   23   H23        3.265146651     1.383105025    -0.723429963       H   1  noname    0.181439
   24   H24        0.865239089     1.894370476    -1.017073540       H   1  noname    0.177615
   25   H25        6.157177687    -0.404769479     0.503431193       H   1  noname    0.167073
   26   H26        5.118804855    -0.011128330    -0.896213560       H   1  noname    0.129108
   27   H27        5.213478572     1.111517781     0.493958221       H   1  noname    0.137578


@<TRIPOS>BOND
    1      1      2    1
    2      2      3    1
    3      2      4    1
    4      4      5    2
    5      5      6    1
    6      6      7    2
    7      7      8    1
    8      8      9    2
    9      9     10    1
   10     10     11    2
   11      9     12    1
   12     12     13    1
   13     11      6    1
   14      1     14    1
   15      1     15    1
   16      1     16    1
   17      3     17    1
   18      3     18    1
   19      3     19    1
   20      4     20    1
   21      7     21    1
   22      8     22    1
   23     10     23    1
   24     11     24    1
   25     13     25    1
   26     13     26    1
   27     13     27    1
#
#	File Created by: Spartan'20 Export
#

@<TRIPOS>MOLECULE
M0245
23 23
SMALL
USER_CHARGES


@<TRIPOS>ATOM
    1   C1         3.120155956    -1.168415542    -1.078164683     C.3   1  noname   -0.530457
    2   N2         2.353820568    -0.083249155    -0.493315992   N.pl3   1  noname   -0.055921
    3   C3         3.039867805     0.737697573     0.488719596     C.3   1  noname   -0.546317
    4   C4         1.000241843    -0.219260121    -0.379360893     C.2   1  noname    0.384909
    5   N5         0.305465193     0.440149713     0.489174766     N.2   1  noname   -0.631753
    6   C6        -1.095914513     0.333517816     0.380579125     C.2   1  noname    0.546692
    7   C7        -1.776501967     0.463536308    -0.840743192     C.2   1  noname   -0.388781
    8   C8        -3.168721967     0.367645797    -0.885093640     C.2   1  noname   -0.068419
    9   C9        -3.898692572     0.153928781     0.284918260     C.2   1  noname   -0.271498
   10   C10       -3.226413102     0.045325054     1.506666352     C.2   1  noname   -0.048033
   11   C11       -1.838211775     0.147680687     1.557332082     C.2   1  noname   -0.385302
   12   H12        4.010695731    -0.764773467    -1.566292602       H   1  noname    0.190386
   13   H13        2.512745414    -1.679084895    -1.830055886       H   1  noname    0.169906
   14   H14        3.437431940    -1.903654151    -0.324902746       H   1  noname    0.190471
   15   H15        2.443985368     1.631417133     0.674688161       H   1  noname    0.195668
   16   H16        3.172635956     0.206672635     1.440333233       H   1  noname    0.191191
   17   H17        4.020098222     1.013702451     0.091434882       H   1  noname    0.199192
   18   H18        0.555449353    -0.913326602    -1.105114342       H   1  noname    0.071832
   19   H19       -1.211379054     0.673335542    -1.746732299       H   1  noname    0.160371
   20   H20       -3.684136538     0.473408777    -1.838078903       H   1  noname    0.142721
   21   H21       -4.982923335     0.083750079     0.248250043       H   1  noname    0.160911
   22   H22       -3.788193508    -0.111596638     2.424993792       H   1  noname    0.136366
   23   H23       -1.301505017     0.071592224     2.500764885       H   1  noname    0.185865


@<TRIPOS>BOND
    1      1      2    1
    2      2      3    1
    3      2      4    1
    4      4      5    2
    5      5      6    1
    6      6      7    2
    7      7      8    1
    8      8      9    2
    9      9     10    1
   10     10     11    2
   11     11      6    1
   12      1     12    1
   13      1     13    1
   14      1     14    1
   15      3     15    1
   16      3     16    1
   17      3     17    1
   18      4     18    1
   19      7     19    1
   20      8     20    1
   21      9     21    1
   22     10     22    1
   23     11     23    1
#
#	File Created by: Spartan'20 Export
#

@<TRIPOS>MOLECULE
M0246
23 23
SMALL
USER_CHARGES


@<TRIPOS>ATOM
    1   C1        -2.771911154    -0.547123204     1.415588307     C.3   1  noname   -0.539023
    2   N2        -2.373331296     0.147078775     0.204447061   N.pl3   1  noname    0.022067
    3   C3        -3.389454853     0.349360534    -0.810464694     C.3   1  noname   -0.469602
    4   C4        -1.059464979     0.154946019    -0.141747835     C.2   1  noname    0.285362
    5   N5        -0.140019311    -0.364033808     0.607813207     N.2   1  noname   -0.603430
    6   C6         1.186639175    -0.163951465     0.192103458     C.2   1  noname    0.561457
    7   C7         1.954759656    -1.285428964    -0.165968727     C.2   1  noname   -0.413235
    8   C8         3.290650039    -1.164753209    -0.537685418     C.2   1  noname   -0.046911
    9   C9         3.906390802     0.089860866    -0.529666565     C.2   1  noname   -0.238441
   10   C10        3.177136069     1.217557902    -0.155155219     C.2   1  noname   -0.054851
   11   C11        1.834712792     1.085628255     0.207521752     C.2   1  noname   -0.183751
   12   Br12       0.898555003     2.653721782     0.770254842      Br   1  noname   -0.077612
   13   H13       -3.720061554    -0.128848738     1.763487098       H   1  noname    0.190342
   14   H14       -2.893981956    -1.624271581     1.244985814       H   1  noname    0.186450
   15   H15       -1.999072983    -0.399783412     2.169758803       H   1  noname    0.186710
   16   H16       -4.231270149     0.900342132    -0.381871203       H   1  noname    0.163487
   17   H17       -2.971331857     0.937316621    -1.630536505       H   1  noname    0.155744
   18   H18       -3.763167533    -0.601848216    -1.213427387       H   1  noname    0.175824
   19   H19       -0.847683806     0.656515262    -1.094357242       H   1  noname    0.079719
   20   H20        1.460727181    -2.254110362    -0.153480073       H   1  noname    0.197019
   21   H21        3.854247995    -2.050588713    -0.820367550       H   1  noname    0.137935
   22   H22        4.951154971     0.194993713    -0.810280067       H   1  noname    0.154949
   23   H23        3.645777748     2.197419812    -0.130951856       H   1  noname    0.129792


@<TRIPOS>BOND
    1      1      2    1
    2      2      3    1
    3      2      4    1
    4      4      5    2
    5      5      6    1
    6      6      7    2
    7      7      8    1
    8      8      9    2
    9      9     10    1
   10     10     11    2
   11     11     12    1
   12     11      6    1
   13      1     13    1
   14      1     14    1
   15      1     15    1
   16      3     16    1
   17      3     17    1
   18      3     18    1
   19      4     19    1
   20      7     20    1
   21      8     21    1
   22      9     22    1
   23     10     23    1
#
#	File Created by: Spartan'20 Export
#

@<TRIPOS>MOLECULE
M0247
12 11
SMALL
USER_CHARGES


@<TRIPOS>ATOM
    1   C1        -0.239930612     1.350685716     0.046035900     C.3   1  noname   -0.515774
    2   N2        -0.093280561    -0.085317993    -0.093032428   N.pl3   1  noname    0.157620
    3   C3         0.968911070    -0.732680852     0.646183008     C.3   1  noname   -0.635090
    4   C4        -0.946359226    -0.784317862    -0.896081168     C.2   1  noname    0.328874
    5   O5        -1.870242388    -0.301999383    -1.548071299     O.2   1  noname   -0.541580
    6   H6        -1.076782690     1.661342510    -0.578408948       H   1  noname    0.204536
    7   H7        -0.439501764     1.615619011     1.090130722       H   1  noname    0.165758
    8   H8         0.673350316     1.860876627    -0.279007664       H   1  noname    0.165551
    9   H9         0.952044813    -1.805650440     0.443037768       H   1  noname    0.189017
   10   H10        1.946219558    -0.335202412     0.349736472       H   1  noname    0.199118
   11   H11        0.843014973    -0.577812473     1.723769736       H   1  noname    0.198793
   12   H12       -0.717443490    -1.865542450    -0.904292100       H   1  noname    0.083177


@<TRIPOS>BOND
    1      1      2    1
    2      2      3    1
    3      2      4    1
    4      4      5    2
    5      1      6    1
    6      1      7    1
    7      1      8    1
    8      3      9    1
    9      3     10    1
   10      3     11    1
   11      4     12    1
#
#	File Created by: Spartan'20 Export
#

@<TRIPOS>MOLECULE
M0248
15 14
SMALL
USER_CHARGES


@<TRIPOS>ATOM
    1   C1        -0.935953543     1.042329697     0.269779940     C.3   1  noname   -0.475528
    2   N2        -0.552942883    -0.313469465    -0.105249755     N.3   1  noname   -0.145415
    3   C3        -1.072384101    -0.640426996    -1.426714017     C.3   1  noname   -0.590792
    4   C4         0.902606768    -0.459018021    -0.106378797     C.3   1  noname   -0.062935
    5   C5         1.477360791    -0.271901279     1.228603405     C.1   1  noname    0.014599
    6   C6         2.008879923    -0.119983633     2.316136891     C.1   1  noname   -0.460901
    7   H7        -0.563273451     1.262687742     1.271624495       H   1  noname    0.190566
    8   H8        -2.026751876     1.114250822     0.280303999       H   1  noname    0.183874
    9   H9        -0.541581597     1.802811659    -0.429499911       H   1  noname    0.161033
   10   H10       -2.161911032    -0.553820411    -1.414864179       H   1  noname    0.221553
   11   H11       -0.812369000    -1.672620622    -1.677985599       H   1  noname    0.193032
   12   H12       -0.679238362     0.023308797    -2.218820752       H   1  noname    0.172886
   13   H13        1.383274411     0.247638881    -0.812631823       H   1  noname    0.128295
   14   H14        1.140064889    -1.469291830    -0.460164230       H   1  noname    0.147590
   15   H15        2.434219063     0.007504660     3.285860333       H   1  noname    0.322143


@<TRIPOS>BOND
    1      1      2    1
    2      2      3    1
    3      2      4    1
    4      4      5    1
    5      5      6    3
    6      1      7    1
    7      1      8    1
    8      1      9    1
    9      3     10    1
   10      3     11    1
   11      3     12    1
   12      4     13    1
   13      4     14    1
   14      6     15    1
#
#	File Created by: Spartan'20 Export
#

@<TRIPOS>MOLECULE
M0249
14 13
SMALL
USER_CHARGES


@<TRIPOS>ATOM
    1   C1        -0.278885299     0.946754862    -0.971635229     C.3   1  noname   -0.521168
    2   N2        -0.038951842    -0.351128658    -0.347599826     N.3   1  noname   -0.123128
    3   C3        -1.298634411    -0.974875874     0.043272331     C.3   1  noname   -0.587635
    4   C4         0.815835535    -0.213500621     0.824850279     C.3   1  noname   -0.191678
    5   C5         2.157679616     0.255147624     0.447665517     C.1   1  noname    0.300525
    6   N6         3.230471859     0.648702161     0.151909466     N.1   1  noname   -0.414005
    7   H7        -0.776381336     1.659087905    -0.289041007       H   1  noname    0.176838
    8   H8         0.668581948     1.378867904    -1.301963778       H   1  noname    0.205262
    9   H9        -0.914718106     0.802205111    -1.848330459       H   1  noname    0.202313
   10   H10       -1.921531056    -1.099509278    -0.844999375       H   1  noname    0.225458
   11   H11       -1.861453698    -0.378935424     0.783512619       H   1  noname    0.184812
   12   H12       -1.101387355    -1.963236403     0.466784160       H   1  noname    0.198910
   13   H13        0.402594303     0.482909976     1.580120977       H   1  noname    0.162073
   14   H14        0.916779842    -1.192489283     1.305454326       H   1  noname    0.181421


@<TRIPOS>BOND
    1      1      2    1
    2      2      3    1
    3      2      4    1
    4      4      5    1
    5      5      6    3
    6      1      7    1
    7      1      8    1
    8      1      9    1
    9      3     10    1
   10      3     11    1
   11      3     12    1
   12      4     13    1
   13      4     14    1
#
#	File Created by: Spartan'20 Export
#

@<TRIPOS>MOLECULE
M0250
17 16
SMALL
USER_CHARGES


@<TRIPOS>ATOM
    1   C1        -1.542522408    -1.383700707    -0.619930248     C.3   1  noname   -0.545724
    2   N2        -0.751716337    -0.163985536    -0.525290228     N.3   1  noname   -0.192916
    3   C3        -1.293911255     0.705635611     0.511274396     C.3   1  noname   -0.450108
    4   C4         0.649014587    -0.485410731    -0.253948813     C.3   1  noname   -0.089748
    5   C5         1.525102442     0.722984914    -0.389973347     C.2   1  noname   -0.092415
    6   C6         2.363962695     1.154073627     0.559752704     C.2   1  noname   -0.499068
    7   H7        -1.152900659    -2.010576692    -1.426792006       H   1  noname    0.183406
    8   H8        -2.579029763    -1.125886474    -0.854412121       H   1  noname    0.207790
    9   H9        -1.535897417    -1.973411005     0.315327688       H   1  noname    0.164181
   10   H10       -2.327262643     0.961482469     0.261375808       H   1  noname    0.175026
   11   H11       -0.710213444     1.626602036     0.564472800       H   1  noname    0.181017
   12   H12       -1.283548586     0.230049034     1.509964475       H   1  noname    0.156766
   13   H13        0.957923530    -1.239385283    -0.990049504       H   1  noname    0.128438
   14   H14        0.784468543    -0.937850898     0.749350733       H   1  noname    0.123360
   15   H15        1.453027773     1.251132031    -1.339709551       H   1  noname    0.151496
   16   H16        2.444541147     0.646793030     1.517366565       H   1  noname    0.200996
   17   H17        2.998961795     2.021454574     0.411220650       H   1  noname    0.197504


@<TRIPOS>BOND
    1      1      2    1
    2      2      3    1
    3      2      4    1
    4      4      5    1
    5      5      6    2
    6      1      7    1
    7      1      8    1
    8      1      9    1
    9      3     10    1
   10      3     11    1
   11      3     12    1
   12      4     13    1
   13      4     14    1
   14      5     15    1
   15      6     16    1
   16      6     17    1
#
#	File Created by: Spartan'20 Export
#

@<TRIPOS>MOLECULE
M0251
17 16
SMALL
USER_CHARGES


@<TRIPOS>ATOM
    1   C1        -1.666446430    -0.984832380     0.704800042     C.3   1  noname   -0.566201
    2   N2        -0.824988295    -0.135641830    -0.133253084     N.3   1  noname   -0.236560
    3   C3        -1.158712477     1.266728192     0.093482692     C.3   1  noname   -0.470192
    4   C4         0.582025295    -0.404061223     0.136715457     C.3   1  noname    0.081758
    5   C5         1.477504177     0.176739567    -0.965435340     C.3   1  noname   -0.370541
    6   C6         2.874326311    -0.219743889    -0.772889243     C.1   1  noname    0.287601
    7   N7         3.992698193    -0.554143004    -0.595284413     N.1   1  noname   -0.423249
    8   H8        -2.716120774    -0.798216325     0.463837875       H   1  noname    0.222345
    9   H9        -1.520050390    -0.802679718     1.784273375       H   1  noname    0.172235
   10   H10       -1.447624798    -2.035168717     0.496235149       H   1  noname    0.190349
   11   H11       -2.222186900     1.415533347    -0.108948038       H   1  noname    0.197443
   12   H12       -0.951920743     1.589314979     1.129917012       H   1  noname    0.165289
   13   H13       -0.599687103     1.911041066    -0.588261930       H   1  noname    0.159555
   14   H14        0.722434328    -1.489545533     0.153819898       H   1  noname    0.119134
   15   H15        0.903683550    -0.018133101     1.122512698       H   1  noname    0.087352
   16   H16        1.124126450    -0.186490422    -1.935443710       H   1  noname    0.181660
   17   H17        1.430939604     1.269298990    -0.986078441       H   1  noname    0.202022


@<TRIPOS>BOND
    1      1      2    1
    2      2      3    1
    3      2      4    1
    4      4      5    1
    5      5      6    1
    6      6      7    3
    7      1      8    1
    8      1      9    1
    9      1     10    1
   10      3     11    1
   11      3     12    1
   12      3     13    1
   13      4     14    1
   14      4     15    1
   15      5     16    1
   16      5     17    1
#
#	File Created by: Spartan'20 Export
#

@<TRIPOS>MOLECULE
M0252
19 18
SMALL
USER_CHARGES


@<TRIPOS>ATOM
    1   C1        -2.164936942     0.688170399     0.596597537     C.3   1  noname   -0.564125
    2   N2        -1.052801409     0.423309349    -0.309019727     N.3   1  noname   -0.265449
    3   C3        -1.403577269    -0.672076143    -1.206218878     C.3   1  noname   -0.479652
    4   C4         0.149173705     0.114319459     0.464250626     C.3   1  noname    0.090079
    5   C5         1.400132062     0.066557511    -0.406408047     C.3   1  noname   -0.156632
    6   C6         2.689540613     0.074014142     0.395163252     C.3   1  noname   -0.307714
    7   Cl7        2.878983967    -1.408404396     1.385785331      Cl   1  noname   -0.173169
    8   H8        -2.413213950    -0.178035606     1.236808771       H   1  noname    0.169216
    9   H9        -3.051815089     0.950068279     0.012980638       H   1  noname    0.220571
   10   H10       -1.915942922     1.534820385     1.242373836       H   1  noname    0.183899
   11   H11       -2.327374373    -0.417395197    -1.733337647       H   1  noname    0.200268
   12   H12       -1.559881195    -1.626818442    -0.669877553       H   1  noname    0.164557
   13   H13       -0.621769851    -0.818766017    -1.954479102       H   1  noname    0.152339
   14   H14        0.039617293    -0.831558810     1.026453877       H   1  noname    0.074247
   15   H15        0.273596072     0.914269449     1.205203863       H   1  noname    0.096306
   16   H16        1.397386160    -0.811534234    -1.058935232       H   1  noname    0.141564
   17   H17        1.400611353     0.955269131    -1.049584711       H   1  noname    0.099172
   18   H18        3.559568311     0.122849022    -0.261658856       H   1  noname    0.180738
   19   H19        2.722703463     0.920941720     1.083902021       H   1  noname    0.173784


@<TRIPOS>BOND
    1      1      2    1
    2      2      3    1
    3      2      4    1
    4      4      5    1
    5      5      6    1
    6      6      7    1
    7      1      8    1
    8      1      9    1
    9      1     10    1
   10      3     11    1
   11      3     12    1
   12      3     13    1
   13      4     14    1
   14      4     15    1
   15      5     16    1
   16      5     17    1
   17      6     18    1
   18      6     19    1
#
#	File Created by: Spartan'20 Export
#

@<TRIPOS>MOLECULE
M0253
23 23
SMALL
USER_CHARGES


@<TRIPOS>ATOM
    1   C1         1.708380527    -1.134635009     0.711369726     C.3   1  noname   -0.578389
    2   N2         1.592931261    -0.433004514    -0.561846399     N.3   1  noname   -0.048557
    3   C3         2.915734160    -0.128479072    -1.091688035     C.3   1  noname   -0.547166
    4   C4         0.814419677     0.793092172    -0.405555629     C.3   1  noname   -0.447695
    5   C5        -0.625729700     0.503691505    -0.062650334     C.2   1  noname    0.258768
    6   C6        -1.341411087    -0.440570155    -0.811726499     C.2   1  noname   -0.192327
    7   C7        -2.682738254    -0.696384433    -0.528664443     C.2   1  noname   -0.129002
    8   C8        -3.328511891    -0.005030284     0.500642769     C.2   1  noname   -0.163325
    9   C9        -2.621768199     0.936473952     1.250695531     C.2   1  noname   -0.129348
   10   C10       -1.276009527     1.186741662     0.969688903     C.2   1  noname   -0.232460
   11   H11        2.266077149    -2.063334770     0.560065065       H   1  noname    0.199116
   12   H12        2.231449509    -0.533365505     1.478297628       H   1  noname    0.186147
   13   H13        0.713059315    -1.384028848     1.084002593       H   1  noname    0.206746
   14   H14        2.815616842     0.360854569    -2.064490648       H   1  noname    0.185729
   15   H15        3.502759902     0.531604951    -0.426904105       H   1  noname    0.174389
   16   H16        3.472442608    -1.059604633    -1.228901397       H   1  noname    0.197176
   17   H17        1.252165198     1.463041881     0.362426093       H   1  noname    0.182195
   18   H18        0.860207551     1.334797620    -1.359347181       H   1  noname    0.191692
   19   H19       -0.825837133    -0.983053104    -1.600614950       H   1  noname    0.135655
   20   H20       -3.228392297    -1.433129978    -1.114161437       H   1  noname    0.136367
   21   H21       -4.374792843    -0.204059364     0.719672653       H   1  noname    0.137637
   22   H22       -3.115520396     1.473003070     2.057582374       H   1  noname    0.137492
   23   H23       -0.724532371     1.915378286     1.562107722       H   1  noname    0.139161


@<TRIPOS>BOND
    1      1      2    1
    2      2      3    1
    3      2      4    1
    4      4      5    1
    5      5      6    2
    6      6      7    1
    7      7      8    2
    8      8      9    1
    9      9     10    2
   10     10      5    1
   11      1     11    1
   12      1     12    1
   13      1     13    1
   14      3     14    1
   15      3     15    1
   16      3     16    1
   17      4     17    1
   18      4     18    1
   19      6     19    1
   20      7     20    1
   21      8     21    1
   22      9     22    1
   23     10     23    1
#
#	File Created by: Spartan'20 Export
#

@<TRIPOS>MOLECULE
M0254
29 28
SMALL
USER_CHARGES


@<TRIPOS>ATOM
    1   C1        -2.133232522     1.582295687     0.274681841     C.3   1  noname   -0.483256
    2   N2        -0.680072848     1.380019981     0.249331007   N.pl3   1  noname   -0.264910
    3   C3         0.027283466     2.662500181     0.160563474     C.3   1  noname   -0.502276
    4   P4        -0.109530741     0.130639865    -0.730073209       P   1  noname    1.245856
    5   O5        -0.234956577     0.205231053    -2.221276798     O.2   1  noname   -0.761912
    6   N6         1.517756981     0.105150112    -0.283409180   N.pl3   1  noname   -0.134987
    7   C7         1.941319395    -0.014256242     1.105180732     C.3   1  noname   -0.403162
    8   C8         2.474843253    -0.456646497    -1.233336492     C.3   1  noname   -0.535127
    9   N9        -1.011280085    -1.165735363    -0.133832852   N.pl3   1  noname   -0.121007
   10   C10       -1.210608026    -2.316187807    -1.011837065     C.3   1  noname   -0.563855
   11   C11       -1.040756191    -1.506326857     1.282668975     C.3   1  noname   -0.392966
   12   H12       -2.389477929     2.167515387     1.163891567       H   1  noname    0.185811
   13   H13       -2.640072314     0.619312247     0.319823098       H   1  noname    0.138613
   14   H14       -2.482967548     2.125733873    -0.613829859       H   1  noname    0.175930
   15   H15       -0.221596566     3.259945782     1.043983519       H   1  noname    0.191795
   16   H16        1.103041136     2.491329382     0.134845290       H   1  noname    0.144182
   17   H17       -0.263008352     3.225189941    -0.736142851       H   1  noname    0.179379
   18   H18        2.083209472    -1.060873774     1.412085531       H   1  noname    0.130509
   19   H19        1.204285214     0.451284191     1.760461041       H   1  noname    0.130975
   20   H20        2.896190215     0.508561597     1.233453226       H   1  noname    0.156033
   21   H21        2.638463770    -1.531499557    -1.068542575       H   1  noname    0.162819
   22   H22        3.435888593     0.056216433    -1.116021927       H   1  noname    0.170897
   23   H23        2.106365648    -0.299174045    -2.246734489       H   1  noname    0.195341
   24   H24       -1.192332571    -1.980457593    -2.048173960       H   1  noname    0.201863
   25   H25       -0.440674537    -3.087418400    -0.864392923       H   1  noname    0.169679
   26   H26       -2.186619227    -2.765393994    -0.795818378       H   1  noname    0.175805
   27   H27       -2.006198784    -1.969785381     1.518431756       H   1  noname    0.152800
   28   H28       -0.246986339    -2.214534406     1.560288016       H   1  noname    0.127297
   29   H29       -0.938275991    -0.602635799     1.883733485       H   1  noname    0.127875


@<TRIPOS>BOND
    1      1      2    1
    2      2      3    1
    3      2      4    1
    4      4      5    2
    5      4      6    1
    6      6      7    1
    7      6      8    1
    8      4      9    1
    9      9     10    1
   10      9     11    1
   11      1     12    1
   12      1     13    1
   13      1     14    1
   14      3     15    1
   15      3     16    1
   16      3     17    1
   17      7     18    1
   18      7     19    1
   19      7     20    1
   20      8     21    1
   21      8     22    1
   22      8     23    1
   23     10     24    1
   24     10     25    1
   25     10     26    1
   26     11     27    1
   27     11     28    1
   28     11     29    1
#
#	File Created by: Spartan'20 Export
#

@<TRIPOS>MOLECULE
M0255
16 15
SMALL
USER_CHARGES


@<TRIPOS>ATOM
    1   C1        -0.555433664     1.231236673    -1.079400280     C.3   1  noname   -0.485490
    2   N2        -0.797328816     0.000060698    -0.328495556   N.pl3   1  noname   -0.236289
    3   C3        -0.555434655    -1.231119162    -1.079400883     C.3   1  noname   -0.485623
    4   S4        -0.337164373     0.000092240     1.277078756       S   1  noname    1.271948
    5   O5        -0.768100129     1.280387337     1.836926678     O.2   1  noname   -0.603494
    6   O6        -0.768479321    -1.280003247     1.837099580     O.2   1  noname   -0.603516
    7   C7         1.451915501    -0.000194812     1.287693206     C.3   1  noname   -0.660412
    8   H8         0.479450358     1.307076907    -1.444701020       H   1  noname    0.166497
    9   H9        -0.789324696     2.086428170    -0.446887767       H   1  noname    0.202812
   10   H10       -1.228001091     1.235886786    -1.940383467       H   1  noname    0.205474
   11   H11       -0.787907145    -2.086441999    -0.446287232       H   1  noname    0.202869
   12   H12        0.479200344    -1.306202903    -1.445996185       H   1  noname    0.166535
   13   H13       -1.229223711    -1.236441941    -1.939629107       H   1  noname    0.205448
   14   H14        1.818057564    -0.899779748     0.790197826       H   1  noname    0.214529
   15   H15        1.769428548    -0.000250383     2.332002178       H   1  noname    0.224185
   16   H16        1.818345285     0.899265383     0.790183273       H   1  noname    0.214528


@<TRIPOS>BOND
    1      1      2    1
    2      2      3    1
    3      2      4    1
    4      4      5    2
    5      4      6    2
    6      4      7    1
    7      1      8    1
    8      1      9    1
    9      1     10    1
   10      3     11    1
   11      3     12    1
   12      3     13    1
   13      7     14    1
   14      7     15    1
   15      7     16    1
#
#	File Created by: Spartan'20 Export
#

@<TRIPOS>MOLECULE
M0256
23 23
SMALL
USER_CHARGES


@<TRIPOS>ATOM
    1   C1        -1.811356245     1.284650973    -0.441894281     C.3   1  noname   -0.534811
    2   N2        -1.773928123    -0.076178950     0.107701419     N.3   1  noname   -0.246124
    3   C3        -3.113711639    -0.665632592     0.252861402     C.3   1  noname   -0.445357
    4   S4        -0.702398917    -1.082952065    -0.724944026       S   1  noname    1.119766
    5   O5        -0.775955107    -0.859205481    -2.176569853     O.2   1  noname   -0.567791
    6   O6        -0.890421099    -2.425758171    -0.169797180     O.2   1  noname   -0.579148
    7   C7         0.847141955    -0.426329128    -0.155328738     C.2   1  noname   -0.004015
    8   C8         1.161594726    -0.522195694     1.202969224     C.2   1  noname   -0.181813
    9   C9         2.393543981    -0.039129581     1.639977007     C.2   1  noname   -0.092198
   10   C10        3.291827838     0.527707507     0.729385907     C.2   1  noname   -0.113664
   11   C11        2.962397001     0.610341884    -0.624790602     C.2   1  noname   -0.155006
   12   C12        1.731515259     0.131691278    -1.078998365     C.2   1  noname   -0.099653
   13   H13       -2.379609715     1.905135567     0.255576776       H   1  noname    0.216039
   14   H14       -2.277465491     1.322126313    -1.434356024       H   1  noname    0.206110
   15   H15       -0.795471689     1.679862290    -0.506688775       H   1  noname    0.177624
   16   H16       -3.021176485    -1.666441033     0.671886948       H   1  noname    0.194187
   17   H17       -3.669258647    -0.032060179     0.947814944       H   1  noname    0.185783
   18   H18       -3.655939763    -0.713783292    -0.700589300       H   1  noname    0.188786
   19   H19        0.453802886    -0.970489450     1.894685503       H   1  noname    0.160465
   20   H20        2.655652770    -0.105953385     2.692840618       H   1  noname    0.134301
   21   H21        4.251643126     0.901513916     1.077470566       H   1  noname    0.142109
   22   H22        3.663997051     1.047141293    -1.330935933       H   1  noname    0.145320
   23   H23        1.453576327     0.175937980    -2.128277238       H   1  noname    0.149089


@<TRIPOS>BOND
    1      1      2    1
    2      2      3    1
    3      2      4    1
    4      4      5    2
    5      4      6    2
    6      4      7    1
    7      7      8    2
    8      8      9    1
    9      9     10    2
   10     10     11    1
   11     11     12    2
   12     12      7    1
   13      1     13    1
   14      1     14    1
   15      1     15    1
   16      3     16    1
   17      3     17    1
   18      3     18    1
   19      8     19    1
   20      9     20    1
   21     10     21    1
   22     11     22    1
   23     12     23    1
#
#	File Created by: Spartan'20 Export
#

@<TRIPOS>MOLECULE
M0257
22 22
SMALL
USER_CHARGES


@<TRIPOS>ATOM
    1   C1        -1.819125987     0.144794962     1.033043667     C.3   1  noname   -0.444090
    2   N2        -1.571377043     0.865444790    -0.223594928     N.3   1  noname   -0.216390
    3   C3        -2.805181588     1.481254064    -0.736994865     C.3   1  noname   -0.267428
    4   S4        -0.850120894    -0.107007483    -1.449372916       S   1  noname    0.310457
    5   O5        -1.457226756    -1.484579664    -1.537050290     O.2   1  noname   -0.476895
    6   C6         0.707992685    -0.312590534    -0.568642311     C.2   1  noname    0.243040
    7   C7         1.461084121     0.804601496    -0.197637644     C.2   1  noname   -0.357974
    8   C8         2.697159912     0.608983383     0.418059892     C.2   1  noname   -0.009549
    9   C9         3.175073332    -0.686618500     0.643162105     C.2   1  noname   -0.176894
   10   C10        2.412753652    -1.791832213     0.258748010     C.2   1  noname   -0.172278
   11   C11        1.174978471    -1.609484554    -0.362747246     C.2   1  noname   -0.110207
   12   H12       -2.541151020    -0.672439008     0.904216585       H   1  noname    0.177062
   13   H13       -0.880146149    -0.262380552     1.411512122       H   1  noname    0.176291
   14   H14       -2.210267314     0.862566888     1.758560223       H   1  noname    0.179037
   15   H15       -3.122364570     2.247340662    -0.025698897       H   1  noname    0.130516
   16   H16       -3.620957696     0.756072110    -0.865132390       H   1  noname    0.163462
   17   H17       -2.596570675     1.960010467    -1.696029613       H   1  noname    0.115594
   18   H18        1.069876560     1.805217979    -0.363656082       H   1  noname    0.176068
   19   H19        3.292133490     1.468135960     0.718877554       H   1  noname    0.120871
   20   H20        4.140866596    -0.832250991     1.120868577       H   1  noname    0.147673
   21   H21        2.785810020    -2.797838013     0.434904496       H   1  noname    0.152168
   22   H22        0.556760851    -2.447401249    -0.675396050       H   1  noname    0.139468


@<TRIPOS>BOND
    1      1      2    1
    2      2      3    1
    3      2      4    1
    4      4      5    2
    5      4      6    1
    6      6      7    2
    7      7      8    1
    8      8      9    2
    9      9     10    1
   10     10     11    2
   11     11      6    1
   12      1     12    1
   13      1     13    1
   14      1     14    1
   15      3     15    1
   16      3     16    1
   17      3     17    1
   18      7     18    1
   19      8     19    1
   20      9     20    1
   21     10     21    1
   22     11     22    1
#
#	File Created by: Spartan'20 Export
#

@<TRIPOS>MOLECULE
M0258
21 21
SMALL
USER_CHARGES


@<TRIPOS>ATOM
    1   C1         0.066533140    -1.234375352    -2.316213029     C.3   1  noname   -0.410397
    2   N2        -0.241464616     0.001328115    -1.610342319   N.pl3   1  noname   -0.210919
    3   C3         0.076927181     1.234041129    -2.316050632     C.3   1  noname   -0.407274
    4   C4        -0.141762250     0.000668184    -0.223884897     C.2   1  noname    0.507406
    5   C5        -0.117386004     1.208371369     0.509983067     C.2   1  noname   -0.404792
    6   C6        -0.064431155     1.208071426     1.898212997     C.2   1  noname   -0.105171
    7   C7        -0.038141869    -0.000013102     2.608675027     C.2   1  noname    0.040476
    8   C8        -0.055578944    -1.207667287     1.897074036     C.2   1  noname   -0.106573
    9   C9        -0.108938282    -1.207397710     0.508822533     C.2   1  noname   -0.401796
   10   C10        0.022179688    -0.000380641     4.040264624     C.1   1  noname    0.232275
   11   N11        0.071873397    -0.000630688     5.223340450     N.1   1  noname   -0.423832
   12   H12        1.090167641    -1.592380933    -2.126976017       H   1  noname    0.152315
   13   H13       -0.637536145    -2.021041905    -2.033403866       H   1  noname    0.141979
   14   H14       -0.051195144    -1.060672658    -3.386374331       H   1  noname    0.182471
   15   H15        1.102205231     1.583171408    -2.124761633       H   1  noname    0.151765
   16   H16       -0.039907418     1.061376255    -3.386244723       H   1  noname    0.181647
   17   H17       -0.620554089     2.026164650    -2.035604847       H   1  noname    0.141377
   18   H18       -0.128731741     2.164915389     0.000652137       H   1  noname    0.195430
   19   H19       -0.044283406     2.151788868     2.438035699       H   1  noname    0.174458
   20   H20       -0.027766980    -2.151643196     2.436037662       H   1  noname    0.174637
   21   H21       -0.112208235    -2.163693320    -0.001241937       H   1  noname    0.194518


@<TRIPOS>BOND
    1      1      2    1
    2      2      3    1
    3      2      4    1
    4      4      5    2
    5      5      6    1
    6      6      7    2
    7      7      8    1
    8      8      9    2
    9      7     10    1
   10     10     11    3
   11      9      4    1
   12      1     12    1
   13      1     13    1
   14      1     14    1
   15      3     15    1
   16      3     16    1
   17      3     17    1
   18      5     18    1
   19      6     19    1
   20      8     20    1
   21      9     21    1
#
#	File Created by: Spartan'20 Export
#

@<TRIPOS>MOLECULE
M0259
22 22
SMALL
USER_CHARGES


@<TRIPOS>ATOM
    1   C1        -2.380609639     1.310125089    -0.644026807     C.3   1  noname   -0.389014
    2   N2        -1.776754669     0.012768184    -0.369332672   N.pl3   1  noname   -0.225735
    3   C3        -2.606696847    -0.926023370     0.371947639     C.3   1  noname   -0.413730
    4   C4        -0.402472929    -0.035193625    -0.164277396     C.2   1  noname    0.510698
    5   C5         0.437568464     1.024157952    -0.586667659     C.2   1  noname   -0.436212
    6   C6         1.812802975     0.954129974    -0.425386118     C.2   1  noname   -0.032819
    7   C7         2.409026474    -0.171131888     0.158164480     C.2   1  noname   -0.024773
    8   C8         1.590087071    -1.221458718     0.584620045     C.2   1  noname   -0.155056
    9   C9         0.210103624    -1.162089776     0.429090036     C.2   1  noname   -0.377503
   10   C10        3.867804271    -0.243656623     0.331765403     C.2   1  noname    0.351932
   11   O11        4.655901056     0.636183954    -0.008919219     O.2   1  noname   -0.496487
   12   H12       -1.990310086     1.723945266    -1.576491901       H   1  noname    0.140540
   13   H13       -3.454320063     1.171308775    -0.773630033       H   1  noname    0.174103
   14   H14       -2.213309978     2.039650260     0.162277849       H   1  noname    0.150657
   15   H15       -2.359927795    -1.953297237     0.094253486       H   1  noname    0.141996
   16   H16       -3.649994844    -0.755891262     0.101268297       H   1  noname    0.182714
   17   H17       -2.502689806    -0.821347001     1.462251995       H   1  noname    0.152093
   18   H18        0.015207470     1.915972492    -1.035294203       H   1  noname    0.194906
   19   H19        2.450109937     1.773477022    -0.750112714       H   1  noname    0.156160
   20   H20        2.036693873    -2.101136871     1.048042610       H   1  noname    0.154841
   21   H21       -0.387926064    -1.993869593     0.782815054       H   1  noname    0.188289
   22   H22        4.239707505    -1.176623004     0.807641829       H   1  noname    0.052400


@<TRIPOS>BOND
    1      1      2    1
    2      2      3    1
    3      2      4    1
    4      4      5    2
    5      5      6    1
    6      6      7    2
    7      7      8    1
    8      8      9    2
    9      7     10    1
   10     10     11    2
   11      9      4    1
   12      1     12    1
   13      1     13    1
   14      1     14    1
   15      3     15    1
   16      3     16    1
   17      3     17    1
   18      5     18    1
   19      6     19    1
   20      8     20    1
   21      9     21    1
   22     10     22    1
#
#	File Created by: Spartan'20 Export
#

@<TRIPOS>MOLECULE
M0260
20 20
SMALL
USER_CHARGES


@<TRIPOS>ATOM
    1   C1         0.044377524     1.222665879    -2.035368594     C.3   1  noname   -0.388683
    2   N2        -0.330721435     0.000022073    -1.338192281   N.pl3   1  noname   -0.304001
    3   C3         0.044101265    -1.222668228    -2.035412316     C.3   1  noname   -0.388890
    4   C4        -0.173807141    -0.000011633     0.057054762     C.2   1  noname    0.534605
    5   C5        -0.116930815    -1.205953829     0.786199301     C.2   1  noname   -0.414953
    6   C6        -0.015355458    -1.198796889     2.176757610     C.2   1  noname   -0.027822
    7   C7         0.035285004    -0.000002069     2.887716113     C.2   1  noname   -0.256800
    8   C8        -0.015546713     1.198791632     2.176758476     C.2   1  noname   -0.027780
    9   C9        -0.117131744     1.205931747     0.786210531     C.2   1  noname   -0.415016
   10   H10        1.089578894     1.519297229    -1.855513864       H   1  noname    0.144364
   11   H11       -0.607698823     2.046017886    -1.737008344       H   1  noname    0.140609
   12   H12       -0.097682631     1.067903220    -3.106311913       H   1  noname    0.177122
   13   H13       -0.607934570    -2.045963643    -1.736868585       H   1  noname    0.140669
   14   H14       -0.098209651    -1.067934573    -3.106321686       H   1  noname    0.177161
   15   H15        1.089306585    -1.519309700    -1.855802337       H   1  noname    0.144416
   16   H16       -0.147938909    -2.162316915     0.277324375       H   1  noname    0.185969
   17   H17        0.028479120    -2.148664212     2.705147001       H   1  noname    0.124317
   18   H18        0.118020741     0.000016323     3.971152124       H   1  noname    0.144419
   19   H19        0.028132337     2.148676646     2.705139896       H   1  noname    0.124306
   20   H20       -0.148323579     2.162299058     0.277339729       H   1  noname    0.185987


@<TRIPOS>BOND
    1      1      2    1
    2      2      3    1
    3      2      4    1
    4      4      5    2
    5      5      6    1
    6      6      7    2
    7      7      8    1
    8      8      9    2
    9      9      4    1
   10      1     10    1
   11      1     11    1
   12      1     12    1
   13      3     13    1
   14      3     14    1
   15      3     15    1
   16      5     16    1
   17      6     17    1
   18      7     18    1
   19      8     19    1
   20      9     20    1
#
#	File Created by: Spartan'20 Export
#

@<TRIPOS>MOLECULE
M0261
19 19
SMALL
USER_CHARGES


@<TRIPOS>ATOM
    1   C1         0.043519257    -1.231943321    -1.840618035     C.3   1  noname   -0.406381
    2   N2        -0.280150192    -0.000142429    -1.134880491   N.pl3   1  noname   -0.293641
    3   C3         0.042622000     1.232053367    -1.840684314     C.3   1  noname   -0.406776
    4   C4        -0.146425355    -0.000093148     0.247953604     C.2   1  noname    0.825800
    5   C5        -0.094598581     1.193625703     0.994682316     C.2   1  noname   -0.769950
    6   C6        -0.008626711     1.134447524     2.382078752     C.2   1  noname    0.510930
    7   N7         0.035347731    -0.000071859     3.103289478     N.2   1  noname   -0.728069
    8   C8        -0.009376570    -1.134591478     2.382302961     C.2   1  noname    0.511346
    9   C9        -0.095362958    -1.193771376     0.994902251     C.2   1  noname   -0.770378
   10   H10       -0.624653805    -2.036110673    -1.525428599       H   1  noname    0.150221
   11   H11       -0.117557855    -1.072092605    -2.907717817       H   1  noname    0.181832
   12   H12        1.083491367    -1.555167728    -1.683510659       H   1  noname    0.154058
   13   H13        1.082572147     1.556055575    -1.683780439       H   1  noname    0.154150
   14   H14       -0.118627496     1.072195025    -2.907776333       H   1  noname    0.181949
   15   H15       -0.626145195     2.035807364    -1.525300149       H   1  noname    0.150299
   16   H16       -0.114259157     2.166402464     0.517818452       H   1  noname    0.229784
   17   H17        0.032657559     2.060491445     2.954075975       H   1  noname    0.047520
   18   H18        0.031313274    -2.060580682     2.954430727       H   1  noname    0.047433
   19   H19       -0.115739459    -2.166513168     0.518162319       H   1  noname    0.229872


@<TRIPOS>BOND
    1      1      2    1
    2      2      3    1
    3      2      4    1
    4      4      5    2
    5      5      6    1
    6      6      7    2
    7      7      8    1
    8      8      9    2
    9      9      4    1
   10      1     10    1
   11      1     11    1
   12      1     12    1
   13      3     13    1
   14      3     14    1
   15      3     15    1
   16      5     16    1
   17      6     17    1
   18      8     18    1
   19      9     19    1
#
#	File Created by: Spartan'20 Export
#

@<TRIPOS>MOLECULE
M0262
18 18
SMALL
USER_CHARGES


@<TRIPOS>ATOM
    1   C1         0.054046463    -1.236062750    -1.936719847     C.3   1  noname   -0.483100
    2   N2        -0.205358164     0.000683423    -1.216234612   N.pl3   1  noname   -0.259293
    3   C3         0.054002020     1.236174089    -1.938455097     C.3   1  noname   -0.482061
    4   C4        -0.110942926     0.000675332     0.152560106     C.2   1  noname    1.074648
    5   N5        -0.086590008     1.206495913     0.768845749     N.2   1  noname   -0.763907
    6   C6        -0.065542529     1.180500800     2.106452551     C.2   1  noname    0.451669
    7   C7        -0.057523207    -0.000402197     2.843745592     C.2   1  noname   -0.672218
    8   C8        -0.061219204    -1.180637283     2.105189534     C.2   1  noname    0.449879
    9   N9        -0.082132267    -1.205582432     0.767448297     N.2   1  noname   -0.763246
   10   H10       -0.356820348    -1.137210457    -2.944409847       H   1  noname    0.191404
   11   H11       -0.431224573    -2.065210466    -1.425893044       H   1  noname    0.170921
   12   H12        1.129725478    -1.452301293    -2.013328553       H   1  noname    0.171412
   13   H13       -0.419692268     2.067356557    -1.421370893       H   1  noname    0.170942
   14   H14       -0.368749509     1.141503114    -2.940970181       H   1  noname    0.190556
   15   H15        1.128955590     1.445421995    -2.026605797       H   1  noname    0.171468
   16   H16       -0.047226922     2.152928114     2.597224709       H   1  noname    0.083485
   17   H17       -0.034509867    -0.000864455     3.927547780       H   1  noname    0.213352
   18   H18       -0.039197758    -2.153468005     2.594973552       H   1  noname    0.084090


@<TRIPOS>BOND
    1      1      2    1
    2      2      3    1
    3      2      4    1
    4      4      5    2
    5      5      6    1
    6      6      7    2
    7      7      8    1
    8      8      9    2
    9      9      4    1
   10      1     10    1
   11      1     11    1
   12      1     12    1
   13      3     13    1
   14      3     14    1
   15      3     15    1
   16      6     16    1
   17      7     17    1
   18      8     18    1
#
#	File Created by: Spartan'20 Export
#

@<TRIPOS>MOLECULE
M0263
19 19
SMALL
USER_CHARGES


@<TRIPOS>ATOM
    1   C1         1.555969566     0.001104120    -1.860579438     C.3   1  noname   -0.580504
    2   N2         0.159693293    -0.000007816    -1.434317015   N.pl3   1  noname   -0.133462
    3   C3        -0.797400910    -0.001455759    -2.429079307     C.2   1  noname    0.455036
    4   O4        -2.017245675    -0.002993143    -2.300132513     O.2   1  noname   -0.551553
    5   C5        -0.119356245    -0.000069672    -0.037772341     C.2   1  noname    0.328124
    6   C6        -1.435066091     0.000894429     0.463245392     C.2   1  noname   -0.318771
    7   C7        -1.651579986     0.000931197     1.840312236     C.2   1  noname   -0.070642
    8   C8        -0.589141533     0.000081986     2.744103360     C.2   1  noname   -0.182629
    9   C9         0.712741850    -0.000826247     2.247972702     C.2   1  noname   -0.092351
   10   C10        0.952164935    -0.000903511     0.873870840     C.2   1  noname   -0.311132
   11   H11        2.074261755     0.892272619    -1.497515137       H   1  noname    0.194494
   12   H12        1.590307357     0.001980072    -2.949527041       H   1  noname    0.199423
   13   H13        2.075332476    -0.890035162    -1.498957329       H   1  noname    0.194492
   14   H14       -0.329964602    -0.001113778    -3.428531060       H   1  noname    0.074079
   15   H15       -2.272186056     0.001529108    -0.218161178       H   1  noname    0.218355
   16   H16       -2.675888253     0.001658425     2.205132088       H   1  noname    0.130449
   17   H17       -0.772633378     0.000131808     3.815110333       H   1  noname    0.137836
   18   H18        1.559227095    -0.001489384     2.930459364       H   1  noname    0.133991
   19   H19        1.980764401    -0.001689290     0.534366045       H   1  noname    0.174765


@<TRIPOS>BOND
    1      1      2    1
    2      2      3    1
    3      3      4    2
    4      2      5    1
    5      5      6    2
    6      6      7    1
    7      7      8    2
    8      8      9    1
    9      9     10    2
   10     10      5    1
   11      1     11    1
   12      1     12    1
   13      1     13    1
   14      3     14    1
   15      6     15    1
   16      7     16    1
   17      8     17    1
   18      9     18    1
   19     10     19    1
#
#	File Created by: Spartan'20 Export
#

@<TRIPOS>MOLECULE
M0264
15 15
SMALL
USER_CHARGES


@<TRIPOS>ATOM
    1   C1        -0.000146177     0.011935581    -2.152338396     C.3   1  noname   -0.628727
    2   N2         0.000073073     0.003637870    -0.701115960    N.am   1  noname    0.013069
    3   C3        -1.167664465     0.000252962     0.058059160     C.2   1  noname    0.563433
    4   O4        -2.297579882    -0.001389962    -0.406828619     O.2   1  noname   -0.548975
    5   C5        -0.765624507    -0.007052763     1.524486713     C.3   1  noname   -0.364798
    6   C6         0.765630510    -0.006773176     1.524532621     C.3   1  noname   -0.364628
    7   C7         1.167786967     0.000362686     0.058136558     C.2   1  noname    0.563322
    8   O8         2.297739050    -0.001243171    -0.406606325     O.2   1  noname   -0.548918
    9   H9         0.000766991     1.036408826    -2.531487357       H   1  noname    0.206037
   10   H10       -0.898926742    -0.499576551    -2.495914710       H   1  noname    0.221785
   11   H11        0.897937849    -0.501016679    -2.495900036       H   1  noname    0.221668
   12   H12       -1.200917833     0.870323443     2.010232292       H   1  noname    0.167284
   13   H13       -1.201155482    -0.888651387     2.002182538       H   1  noname    0.166114
   14   H14        1.201538173    -0.888099211     2.002474759       H   1  noname    0.166083
   15   H15        1.200542477     0.870881532     2.010086762       H   1  noname    0.167252


@<TRIPOS>BOND
    1      1      2    1
    2      2      3    am
    3      3      4    2
    4      3      5    1
    5      5      6    1
    6      6      7    1
    7      7      8    2
    8      7      2    am
    9      1      9    1
   10      1     10    1
   11      1     11    1
   12      5     12    1
   13      5     13    1
   14      6     14    1
   15      6     15    1
#
#	File Created by: Spartan'20 Export
#

@<TRIPOS>MOLECULE
M0265
20 20
SMALL
USER_CHARGES


@<TRIPOS>ATOM
    1   C1        -1.160414515     0.000000641    -1.723019077     C.3   1  noname   -0.460010
    2   N2         0.234841565     0.000000074    -1.298923739     N.3   1  noname   -0.347912
    3   C3         0.604315765    -1.197670062    -0.547570552     C.3   1  noname   -0.104097
    4   C4         0.021589661    -1.253657173     0.873619692     C.3   1  noname   -0.205238
    5   C5         0.428145670    -0.000000088     1.630698831     C.3   1  noname    0.060983
    6   C6         0.021588773     1.253656623     0.873619551     C.3   1  noname   -0.205238
    7   C7         0.604315531     1.197670124    -0.547570430     C.3   1  noname   -0.104097
    8   Cl8       -0.289564140    -0.000000341     3.282267454      Cl   1  noname   -0.242782
    9   H9        -1.338370607    -0.885195449    -2.340558762       H   1  noname    0.178459
   10   H10       -1.900882206     0.000001507    -0.907419432       H   1  noname    0.170674
   11   H11       -1.338370600     0.885195158    -2.340560778       H   1  noname    0.178459
   12   H12        0.292133045    -2.078327767    -1.120076959       H   1  noname    0.131899
   13   H13        1.701110497    -1.225707018    -0.488343923       H   1  noname    0.111685
   14   H14       -1.071941099    -1.313276895     0.840466971       H   1  noname    0.139282
   15   H15        0.378941744    -2.147686940     1.396847295       H   1  noname    0.088171
   16   H16        1.512319745     0.000000513     1.787630674       H   1  noname    0.138724
   17   H17        0.378939772     2.147686633     1.396847425       H   1  noname    0.088171
   18   H18       -1.071942003     1.313275360     0.840466024       H   1  noname    0.139282
   19   H19        0.292133153     2.078328161    -1.120076634       H   1  noname    0.131899
   20   H20        1.701110248     1.225706939    -0.488343631       H   1  noname    0.111685


@<TRIPOS>BOND
    1      1      2    1
    2      2      3    1
    3      3      4    1
    4      4      5    1
    5      5      6    1
    6      6      7    1
    7      5      8    1
    8      7      2    1
    9      1      9    1
   10      1     10    1
   11      1     11    1
   12      3     12    1
   13      3     13    1
   14      4     14    1
   15      4     15    1
   16      5     16    1
   17      6     17    1
   18      6     18    1
   19      7     19    1
   20      7     20    1
#
#	File Created by: Spartan'20 Export
#

@<TRIPOS>MOLECULE
M0266
17 17
SMALL
USER_CHARGES


@<TRIPOS>ATOM
    1   C1         0.508925238    -0.000001460     1.747780569     C.3   1  noname   -0.432809
    2   N2        -0.672972367    -0.000000136     0.885401912     N.3   1  noname   -0.374688
    3   C3        -0.658809569    -1.141492705    -0.038092943     C.3   1  noname   -0.091155
    4   C4         0.305921432    -0.773002489    -1.190629999     C.3   1  noname   -0.140384
    5   C5         0.305918752     0.773003613    -1.190630466     C.3   1  noname   -0.140384
    6   C6        -0.658807634     1.141492735    -0.038091469     C.3   1  noname   -0.091152
    7   H7         1.471254146    -0.000003648     1.209287962       H   1  noname    0.171856
    8   H8         0.477327378    -0.884747456     2.389392956       H   1  noname    0.171391
    9   H9         0.477329838     0.884747743     2.389388100       H   1  noname    0.171391
   10   H10       -0.384550258    -2.059686913     0.490055252       H   1  noname    0.119992
   11   H11       -1.676048434    -1.270881601    -0.426534541       H   1  noname    0.111294
   12   H12        1.309282991    -1.165116139    -1.001046440       H   1  noname    0.077987
   13   H13       -0.026724745    -1.192876685    -2.144378342       H   1  noname    0.068695
   14   H14        1.309279101     1.165120591    -1.001049743       H   1  noname    0.077987
   15   H15       -0.026731795     1.192875348    -2.144377304       H   1  noname    0.068695
   16   H16       -0.384548218     2.059686154     0.490056529       H   1  noname    0.119991
   17   H17       -1.676045857     1.270883049    -0.426532035       H   1  noname    0.111293


@<TRIPOS>BOND
    1      1      2    1
    2      2      3    1
    3      3      4    1
    4      4      5    1
    5      5      6    1
    6      6      2    1
    7      1      7    1
    8      1      8    1
    9      1      9    1
   10      3     10    1
   11      3     11    1
   12      4     12    1
   13      4     13    1
   14      5     14    1
   15      5     15    1
   16      6     16    1
   17      6     17    1
#
#	File Created by: Spartan'20 Export
#

@<TRIPOS>MOLECULE
M0267
16 16
SMALL
USER_CHARGES


@<TRIPOS>ATOM
    1   C1        -2.051162077     0.613445174     0.021311379     C.3   1  noname   -0.598995
    2   N2        -0.658145286     0.237669529     0.091300645    N.am   1  noname   -0.006008
    3   C3        -0.194799856    -1.107120102    -0.199790687     C.3   1  noname   -0.213237
    4   C4         1.286146305    -1.044036672     0.201295239     C.3   1  noname   -0.214163
    5   C5         1.659572562     0.416950749    -0.052884437     C.3   1  noname   -0.387937
    6   C6         0.347653090     1.171488600     0.120979221     C.2   1  noname    0.645608
    7   O7         0.196625058     2.385863300     0.240851082     O.2   1  noname   -0.619844
    8   H8        -2.638753986     0.036585430     0.742274276       H   1  noname    0.182685
    9   H9        -2.114108879     1.676415142     0.260155561       H   1  noname    0.222381
   10   H10       -2.457312409     0.443338343    -0.983030185       H   1  noname    0.185089
   11   H11       -0.762579470    -1.844092295     0.379431897       H   1  noname    0.128742
   12   H12       -0.322304013    -1.347557157    -1.266866873       H   1  noname    0.123360
   13   H13        1.897485020    -1.757668628    -0.357201902       H   1  noname    0.123402
   14   H14        1.382228244    -1.275257847     1.266488559       H   1  noname    0.117591
   15   H15        2.424255055     0.816238241     0.617269450       H   1  noname    0.152005
   16   H16        2.005200644     0.577738192    -1.081583227       H   1  noname    0.159323


@<TRIPOS>BOND
    1      1      2    1
    2      2      3    1
    3      3      4    1
    4      4      5    1
    5      5      6    1
    6      6      7    2
    7      6      2    am
    8      1      8    1
    9      1      9    1
   10      1     10    1
   11      3     11    1
   12      3     12    1
   13      4     13    1
   14      4     14    1
   15      5     15    1
   16      5     16    1
#
#	File Created by: Spartan'20 Export
#

@<TRIPOS>MOLECULE
M0268
20 20
SMALL
USER_CHARGES


@<TRIPOS>ATOM
    1   C1        -0.661476538    -0.000001738     1.946894667     C.3   1  noname   -0.432566
    2   N2         0.561508580     0.000000173     1.154517152     N.3   1  noname   -0.341687
    3   C3         0.707259850    -1.202077404     0.331075488     C.3   1  noname   -0.123055
    4   C4        -0.238093939    -1.257434806    -0.873934653     C.3   1  noname   -0.114152
    5   C5        -0.073312092    -0.000000057    -1.729523350     C.3   1  noname   -0.131615
    6   C6        -0.238093411     1.257435493    -0.873936079     C.3   1  noname   -0.114152
    7   C7         0.707258038     1.202078409     0.331076116     C.3   1  noname   -0.123053
    8   H8        -0.662439038    -0.885490153     2.589776278       H   1  noname    0.167692
    9   H9        -1.599999771    -0.000000058     1.369599824       H   1  noname    0.159887
   10   H10       -0.662438956     0.885484985     2.589779115       H   1  noname    0.167692
   11   H11        1.745103702    -1.225660574    -0.030164222       H   1  noname    0.112333
   12   H12        0.571983677    -2.077281465     0.977620390       H   1  noname    0.119257
   13   H13       -1.277383167    -1.337185806    -0.531675288       H   1  noname    0.095347
   14   H14       -0.031835756    -2.158526641    -1.465003464       H   1  noname    0.047201
   15   H15       -0.787241957    -0.000000959    -2.561544662       H   1  noname    0.047478
   16   H16        0.931334355     0.000000232    -2.175332192       H   1  noname    0.089254
   17   H17       -1.277382801     1.337188504    -0.531678367       H   1  noname    0.095346
   18   H18       -0.031833024     2.158526466    -1.465005191       H   1  noname    0.047201
   19   H19        0.571980554     2.077282145     0.977621419       H   1  noname    0.119257
   20   H20        1.745101693     1.225663254    -0.030162982       H   1  noname    0.112333


@<TRIPOS>BOND
    1      1      2    1
    2      2      3    1
    3      3      4    1
    4      4      5    1
    5      5      6    1
    6      6      7    1
    7      7      2    1
    8      1      8    1
    9      1      9    1
   10      1     10    1
   11      3     11    1
   12      3     12    1
   13      4     13    1
   14      4     14    1
   15      5     15    1
   16      5     16    1
   17      6     17    1
   18      6     18    1
   19      7     19    1
   20      7     20    1
#
#	File Created by: Spartan'20 Export
#

@<TRIPOS>MOLECULE
M0269
19 19
SMALL
USER_CHARGES


@<TRIPOS>ATOM
    1   C1         2.240600243    -0.703599964     0.596497370     C.3   1  noname   -0.633804
    2   N2         0.894391017    -0.372163642     0.156541767    N.am   1  noname   -0.061071
    3   C3         0.665515144     1.039483355    -0.139058335     C.3   1  noname   -0.102213
    4   C4        -0.658628199     1.278854983    -0.844188883     C.3   1  noname   -0.401111
    5   C5        -1.774711439     0.582247965    -0.079563511     C.3   1  noname    0.007739
    6   C6        -1.506677719    -0.917896795    -0.077815767     C.3   1  noname   -0.446584
    7   C7        -0.097080312    -1.308532186     0.336344092     C.2   1  noname    0.702804
    8   O8         0.138537597    -2.447244159     0.753598501     O.2   1  noname   -0.634457
    9   H9         2.297826349    -1.780823503     0.739711525       H   1  noname    0.239280
   10   H10        2.480466165    -0.199083902     1.541101665       H   1  noname    0.186298
   11   H11        2.961368930    -0.386821430    -0.163753050       H   1  noname    0.185082
   12   H12        0.702139774     1.622703488     0.795341109       H   1  noname    0.107692
   13   H13        1.499346495     1.386131237    -0.762366491       H   1  noname    0.116609
   14   H14       -0.607885184     0.883335927    -1.865834741       H   1  noname    0.149311
   15   H15       -0.830929532     2.358515749    -0.918965274       H   1  noname    0.137466
   16   H16       -1.802898834     0.960044487     0.950653020       H   1  noname    0.076888
   17   H17       -2.753932865     0.793839083    -0.523272647       H   1  noname    0.069758
   18   H18       -2.182014392    -1.461423997     0.588970252       H   1  noname    0.147713
   19   H19       -1.665433237    -1.327566698    -1.083940603       H   1  noname    0.152599


@<TRIPOS>BOND
    1      1      2    1
    2      2      3    1
    3      3      4    1
    4      4      5    1
    5      5      6    1
    6      6      7    1
    7      7      8    2
    8      7      2    am
    9      1      9    1
   10      1     10    1
   11      1     11    1
   12      3     12    1
   13      3     13    1
   14      4     14    1
   15      4     15    1
   16      5     16    1
   17      5     17    1
   18      6     18    1
   19      6     19    1
#
#	File Created by: Spartan'20 Export
#

@<TRIPOS>MOLECULE
M0270
22 22
SMALL
USER_CHARGES


@<TRIPOS>ATOM
    1   C1         2.645987524     0.151469990     0.476183985     C.3   1  noname   -0.636098
    2   N2         1.222602138     0.180234540     0.163140813    N.am   1  noname   -0.007887
    3   C3         0.634672320    -1.146821928    -0.031079730     C.3   1  noname   -0.172731
    4   C4        -0.574483532    -1.203602766    -0.958419824     C.3   1  noname   -0.167059
    5   C5        -1.884499773    -0.820626960    -0.271757368     C.3   1  noname   -0.178279
    6   C6        -1.721863059     0.419527122     0.604662296     C.3   1  noname   -0.060372
    7   C7        -0.898157436     1.512151070    -0.075028085     C.3   1  noname   -0.323626
    8   C8         0.616830158     1.413231149     0.068313696     C.2   1  noname    0.597782
    9   O9         1.276149822     2.458715219     0.125663641     O.2   1  noname   -0.620453
   10   H10        3.221777804    -0.233509432    -0.373970894       H   1  noname    0.182507
   11   H11        2.969017092     1.165963109     0.698820142       H   1  noname    0.245706
   12   H12        2.821207436    -0.498308406     1.341261576       H   1  noname    0.177040
   13   H13        1.432891036    -1.757198329    -0.470855630       H   1  noname    0.121420
   14   H14        0.393387001    -1.605257573     0.941187637       H   1  noname    0.112767
   15   H15       -0.379214171    -0.554812935    -1.819515784       H   1  noname    0.093071
   16   H16       -0.654220986    -2.222774184    -1.355537330       H   1  noname    0.087550
   17   H17       -2.652418909    -0.639167988    -1.034207259       H   1  noname    0.081996
   18   H18       -2.241320896    -1.660469951     0.337622391       H   1  noname    0.076371
   19   H19       -2.709482403     0.815084247     0.868551343       H   1  noname    0.062217
   20   H20       -1.241060206     0.148927550     1.552744628       H   1  noname    0.067408
   21   H21       -1.151245378     1.585213133    -1.141142681       H   1  noname    0.136866
   22   H22       -1.126555583     2.492033324     0.353362437       H   1  noname    0.123802


@<TRIPOS>BOND
    1      1      2    1
    2      2      3    1
    3      3      4    1
    4      4      5    1
    5      5      6    1
    6      6      7    1
    7      7      8    1
    8      8      9    2
    9      8      2    am
   10      1     10    1
   11      1     11    1
   12      1     12    1
   13      3     13    1
   14      3     14    1
   15      4     15    1
   16      4     16    1
   17      5     17    1
   18      5     18    1
   19      6     19    1
   20      6     20    1
   21      7     21    1
   22      7     22    1
#
#	File Created by: Spartan'20 Export
#

@<TRIPOS>MOLECULE
M0271
21 21
SMALL
USER_CHARGES


@<TRIPOS>ATOM
    1   C1         0.019959851     2.417537338     1.082406360     C.3   1  noname   -0.561623
    2   N2        -0.177974531     1.180060992     0.345974540    N.am   1  noname   -0.285722
    3   C3         0.151916053     1.232164710    -1.068841986     C.3   1  noname    0.134747
    4   C4        -0.383669759     0.000029928    -1.770776511     C.3   1  noname   -0.624840
    5   C5         0.151362869    -1.232446348    -1.069046911     C.3   1  noname    0.134233
    6   N6        -0.176529854    -1.179806150     0.346197647   N.pl3   1  noname   -0.284600
    7   C7        -0.147322406     0.000161641     1.077832212     C.2   1  noname    0.847591
    8   O8        -0.173459690     0.000346860     2.314330161     O.2   1  noname   -0.639822
    9   C9         0.021207221    -2.417380414     1.082445533     C.3   1  noname   -0.562161
   10   H10       -0.574720722     3.208345287     0.616105940       H   1  noname    0.180484
   11   H11        1.074390565     2.725301189     1.084137974       H   1  noname    0.173223
   12   H12       -0.305776367     2.266167285     2.108944824       H   1  noname    0.222040
   13   H13       -0.299144600     2.141283839    -1.483845493       H   1  noname    0.091883
   14   H14        1.241849782     1.315340409    -1.219870361       H   1  noname    0.066227
   15   H15       -1.477347961     0.000366279    -1.726514101       H   1  noname    0.191155
   16   H16       -0.082340649    -0.000037150    -2.824040507       H   1  noname    0.183061
   17   H17        1.241015123    -1.316766952    -1.221287232       H   1  noname    0.066307
   18   H18       -0.301031537    -2.141228934    -1.483352804       H   1  noname    0.091934
   19   H19       -0.578005578    -3.206988842     0.619462816       H   1  noname    0.180413
   20   H20        1.074927448    -2.728128282     1.079192235       H   1  noname    0.173232
   21   H21       -0.299305258    -2.264322683     2.110545662       H   1  noname    0.222239


@<TRIPOS>BOND
    1      1      2    1
    2      2      3    1
    3      3      4    1
    4      4      5    1
    5      5      6    1
    6      6      7    1
    7      7      8    2
    8      6      9    1
    9      7      2    am
   10      1     10    1
   11      1     11    1
   12      1     12    1
   13      3     13    1
   14      3     14    1
   15      4     15    1
   16      4     16    1
   17      5     17    1
   18      5     18    1
   19      9     19    1
   20      9     20    1
   21      9     21    1
#
#	File Created by: Spartan'20 Export
#

@<TRIPOS>MOLECULE
M0272
26 27
SMALL
USER_CHARGES


@<TRIPOS>ATOM
    1   C1        -1.135585073    -2.092253816    -0.143347193     C.3   1  noname   -0.620645
    2   N2        -1.357079084    -0.773315277    -0.711144586     N.3   1  noname   -0.120323
    3   C3        -2.038600096     0.151993939     0.188387809     C.3   1  noname   -0.104530
    4   C4        -1.915498537     1.503389270    -0.532158893     C.3   1  noname   -0.303114
    5   C5        -0.725770350     1.322486362    -1.506665056     C.3   1  noname   -0.292363
    6   C6        -0.151899392    -0.063805540    -1.177379085     C.3   1  noname   -0.200564
    7   C7         0.979950826    -0.038654218    -0.171317527     C.2   1  noname   -0.010596
    8   C8         1.070441393     0.887758802     0.876286122     C.2   1  noname    0.116083
    9   C9         2.124165690     0.788625953     1.783678375     C.2   1  noname   -0.547903
   10   C10        3.061872936    -0.231235115     1.621133917     C.2   1  noname    0.431403
   11   N11        3.011389710    -1.127892457     0.619706435     N.2   1  noname   -0.629033
   12   C12        1.985215079    -1.014373583    -0.239945518     C.2   1  noname    0.255869
   13   H13       -0.616994037    -2.721185908    -0.874215564       H   1  noname    0.203523
   14   H14       -0.544958867    -2.079564751     0.788323164       H   1  noname    0.200156
   15   H15       -2.107805572    -2.547873050     0.069497212       H   1  noname    0.199555
   16   H16       -3.077257341    -0.168105817     0.330677826       H   1  noname    0.121754
   17   H17       -1.566584207     0.187033658     1.187715313       H   1  noname    0.094669
   18   H18       -2.830123066     1.731241612    -1.084141572       H   1  noname    0.145225
   19   H19       -1.755869045     2.323196960     0.174431013       H   1  noname    0.124730
   20   H20        0.027239659     2.110457939    -1.420328679       H   1  noname    0.123159
   21   H21       -1.081897010     1.320837864    -2.539630541       H   1  noname    0.159546
   22   H22        0.212059865    -0.573829280    -2.079964784       H   1  noname    0.161983
   23   H23        0.345033741     1.691364322     0.974060405       H   1  noname    0.152657
   24   H24        2.222063693     1.494974452     2.604089117       H   1  noname    0.197656
   25   H25        3.896870871    -0.335635045     2.311909458       H   1  noname    0.054167
   26   H26        1.969618212    -1.745637275    -1.049657167       H   1  noname    0.086939


@<TRIPOS>BOND
    1      1      2    1
    2      2      3    1
    3      3      4    1
    4      4      5    1
    5      5      6    1
    6      6      7    1
    7      7      8    2
    8      8      9    1
    9      9     10    2
   10     10     11    1
   11     11     12    2
   12      6      2    1
   13     12      7    1
   14      1     13    1
   15      1     14    1
   16      1     15    1
   17      3     16    1
   18      3     17    1
   19      4     18    1
   20      4     19    1
   21      5     20    1
   22      5     21    1
   23      6     22    1
   24      8     23    1
   25      9     24    1
   26     10     25    1
   27     12     26    1
#
#	File Created by: Spartan'20 Export
#

@<TRIPOS>MOLECULE
M0273
18 18
SMALL
USER_CHARGES


@<TRIPOS>ATOM
    1   C1        -2.426716210    -0.006715663     0.637164722     C.3   1  noname   -0.514691
    2   N2        -1.092747855    -0.241588435     0.126300058    N.am   1  noname   -0.214660
    3   C3        -0.756146225     0.112802413    -1.241980617     C.3   1  noname   -0.230480
    4   C4         0.756105136    -0.113779082    -1.241944548     C.3   1  noname   -0.230243
    5   N5         1.092664379     0.241082044     0.126244227   N.pl3   1  noname   -0.212649
    6   C6        -0.000052102     0.000053838     0.952596198     C.2   1  noname    0.786348
    7   O7        -0.000105715     0.000594107     2.180758735     O.2   1  noname   -0.617652
    8   C8         2.426747604     0.007291572     0.637125999     C.3   1  noname   -0.521688
    9   H9        -3.136598985    -0.674808947     0.143241582       H   1  noname    0.185797
   10   H10       -2.412484505    -0.216398314     1.706922031       H   1  noname    0.203056
   11   H11       -2.745646833     1.032781664     0.478287159       H   1  noname    0.177771
   12   H12       -1.282219080    -0.521106846    -1.961985117       H   1  noname    0.162423
   13   H13       -0.997463235     1.166079709    -1.454589084       H   1  noname    0.146237
   14   H14        1.282170404     0.519886061    -1.962186775       H   1  noname    0.162399
   15   H15        0.997467304    -1.167134603    -1.454202123       H   1  noname    0.146363
   16   H16        2.747661104    -1.031776440     0.475492085       H   1  noname    0.179193
   17   H17        2.411603601     0.214408648     1.707962048       H   1  noname    0.204812
   18   H18        3.135761212     0.678328272     0.144793420       H   1  noname    0.187664


@<TRIPOS>BOND
    1      1      2    1
    2      2      3    1
    3      3      4    1
    4      4      5    1
    5      5      6    1
    6      6      7    2
    7      5      8    1
    8      6      2    am
    9      1      9    1
   10      1     10    1
   11      1     11    1
   12      3     12    1
   13      3     13    1
   14      4     14    1
   15      4     15    1
   16      8     16    1
   17      8     17    1
   18      8     18    1
#
#	File Created by: Spartan'20 Export
#

@<TRIPOS>MOLECULE
M0274
18 18
SMALL
USER_CHARGES


@<TRIPOS>ATOM
    1   C1         2.446067419     0.017900992     0.596971057     C.3   1  noname   -0.569528
    2   N2         1.088257054     0.205713098     0.129011377   N.pl3   1  noname   -0.039321
    3   C3         0.748831642    -0.136284661    -1.246143736     C.3   1  noname   -0.215706
    4   C4        -0.748901023     0.136378191    -1.246047963     C.3   1  noname   -0.212807
    5   N5        -1.088339205    -0.206241266     0.128951617   N.pl3   1  noname   -0.039271
    6   C6        -0.000009318    -0.000339043     0.945822008     C.2   1  noname    0.339030
    7   S7         0.000067582    -0.000540094     2.603366605     S.2   1  noname   -0.421348
    8   C8        -2.446048003    -0.017835493     0.597035076     C.3   1  noname   -0.576730
    9   H9         2.728099712    -1.043958011     0.603255474       H   1  noname    0.190537
   10   H10        2.518817794     0.409285407     1.610926908       H   1  noname    0.181243
   11   H11        3.122938949     0.567738500    -0.062082896       H   1  noname    0.200710
   12   H12        0.961325104    -1.197072617    -1.451552331       H   1  noname    0.142855
   13   H13        1.305356806     0.482710311    -1.955482517       H   1  noname    0.150066
   14   H14       -0.961392825     1.197262719    -1.450976089       H   1  noname    0.142440
   15   H15       -1.305473747    -0.482302077    -1.955622682       H   1  noname    0.149657
   16   H16       -3.123119726    -0.566629743    -0.061870113       H   1  noname    0.202782
   17   H17       -2.727533162     1.043692732     0.604036082       H   1  noname    0.192205
   18   H18       -2.518945052    -0.409478945     1.610402121       H   1  noname    0.183186


@<TRIPOS>BOND
    1      1      2    1
    2      2      3    1
    3      3      4    1
    4      4      5    1
    5      5      6    1
    6      6      7    2
    7      5      8    1
    8      6      2    1
    9      1      9    1
   10      1     10    1
   11      1     11    1
   12      3     12    1
   13      3     13    1
   14      4     14    1
   15      4     15    1
   16      8     16    1
   17      8     17    1
   18      8     18    1
#
#	File Created by: Spartan'20 Export
#

@<TRIPOS>MOLECULE
M0275
22 22
SMALL
USER_CHARGES


@<TRIPOS>ATOM
    1   C1        -2.807464901     0.000027438    -0.018595471     C.3   1  noname   -0.604131
    2   N2        -1.388313642     0.000026346    -0.341273696     N.3   1  noname   -0.101604
    3   C3        -0.734682686     1.190790238     0.192106854     C.3   1  noname   -0.270367
    4   C4         0.734681924     1.190791070    -0.192077661     C.3   1  noname   -0.270370
    5   N5         1.388330127     0.000026468     0.341282863     N.3   1  noname   -0.101606
    6   C6         0.734703341    -1.190814020    -0.191951150     C.3   1  noname   -0.270312
    7   C7        -0.734704595    -1.190814416     0.191978169     C.3   1  noname   -0.270308
    8   C8         2.807468467     0.000026887     0.018557735     C.3   1  noname   -0.604128
    9   H9        -3.277960002     0.887147348    -0.452253877       H   1  noname    0.203297
   10   H10       -2.999685324    -0.000021788     1.069727064       H   1  noname    0.175839
   11   H11       -3.277974904    -0.887045053    -0.452336144       H   1  noname    0.203293
   12   H12       -1.227011486     2.075909767    -0.228158913       H   1  noname    0.167113
   13   H13       -0.819745169     1.244602665     1.294489385       H   1  noname    0.164900
   14   H14        0.819739720     1.244619125    -1.294459781       H   1  noname    0.164900
   15   H15        1.227009011     2.075904451     0.228199002       H   1  noname    0.167111
   16   H16        1.227005750    -2.075860230     0.228476109       H   1  noname    0.167092
   17   H17        0.819859864    -1.244770610    -1.294301631       H   1  noname    0.164880
   18   H18       -1.227008199    -2.075866437    -0.228439742       H   1  noname    0.167093
   19   H19       -0.819865539    -1.244757435     1.294329137       H   1  noname    0.164880
   20   H20        3.277980141     0.887146975     0.452193215       H   1  noname    0.203297
   21   H21        2.999644240    -0.000023379    -1.069768681       H   1  noname    0.175838
   22   H22        3.277993860    -0.887045410     0.452277212       H   1  noname    0.203293


@<TRIPOS>BOND
    1      1      2    1
    2      2      3    1
    3      3      4    1
    4      4      5    1
    5      5      6    1
    6      6      7    1
    7      5      8    1
    8      7      2    1
    9      1      9    1
   10      1     10    1
   11      1     11    1
   12      3     12    1
   13      3     13    1
   14      4     14    1
   15      4     15    1
   16      6     16    1
   17      6     17    1
   18      7     18    1
   19      7     19    1
   20      8     20    1
   21      8     21    1
   22      8     22    1
#
#	File Created by: Spartan'20 Export
#

@<TRIPOS>MOLECULE
M0276
18 18
SMALL
USER_CHARGES


@<TRIPOS>ATOM
    1   C1         1.929838473     0.409210382    -0.526085219     C.3   1  noname   -0.501869
    2   N2         0.780965841     0.393151406     0.366179587     N.3   1  noname   -0.324767
    3   C3         0.343095915    -0.971337830     0.712722633     C.3   1  noname   -0.052257
    4   C4        -0.834896145    -1.429788740    -0.131089798     C.3   1  noname    0.068915
    5   O5        -1.977347354    -0.592265993     0.079597211     O.3   1  noname   -0.412153
    6   C6        -1.630266304     0.754113871     0.423863428     C.3   1  noname   -0.060522
    7   C7        -0.319444683     1.173424716    -0.209843521     C.3   1  noname   -0.074707
    8   H8         1.737552772    -0.069021997    -1.503015277       H   1  noname    0.154612
    9   H9         2.216190878     1.448075411    -0.711833800       H   1  noname    0.183870
   10   H10        2.773430358    -0.096080288    -0.049178175       H   1  noname    0.189079
   11   H11        1.185459640    -1.660444107     0.592219909       H   1  noname    0.102711
   12   H12        0.051373386    -1.002546700     1.768849729       H   1  noname    0.104002
   13   H13       -1.142574316    -2.445101695     0.137437681       H   1  noname    0.067109
   14   H14       -0.559877190    -1.431695963    -1.196206220       H   1  noname    0.092165
   15   H15       -2.451363255     1.382418761     0.067719655       H   1  noname    0.110425
   16   H16       -1.562986409     0.863880121     1.515177858       H   1  noname    0.126284
   17   H17       -0.135130579     2.240532976    -0.033291136       H   1  noname    0.101447
   18   H18       -0.404021027     1.033475667    -1.303224546       H   1  noname    0.125658


@<TRIPOS>BOND
    1      1      2    1
    2      2      3    1
    3      3      4    1
    4      4      5    1
    5      5      6    1
    6      6      7    1
    7      7      2    1
    8      1      8    1
    9      1      9    1
   10      1     10    1
   11      3     11    1
   12      3     12    1
   13      4     13    1
   14      4     14    1
   15      6     15    1
   16      6     16    1
   17      7     17    1
   18      7     18    1
#
#	File Created by: Spartan'20 Export
#

@<TRIPOS>MOLECULE
M0277
24 25
SMALL
USER_CHARGES


@<TRIPOS>ATOM
    1   C1         3.096500276     0.687574232     0.090826497     C.3   1  noname   -0.635035
    2   N2         1.747859028     0.302604093    -0.300872275     N.3   1  noname   -0.226300
    3   C3         1.543738949    -1.135620401    -0.156343889     C.3   1  noname    0.035508
    4   C4         0.243974451    -1.524101079    -0.845050802     C.3   1  noname   -0.641075
    5   C5        -0.901609806    -0.657893024    -0.383516755     C.2   1  noname    0.398275
    6   C6        -2.229584271    -1.052119090    -0.592884866     C.2   1  noname   -0.349146
    7   C7        -3.291827255    -0.244190620    -0.190897891     C.2   1  noname   -0.142515
    8   C8        -3.032441180     0.982183178     0.426921497     C.2   1  noname   -0.165520
    9   C9        -1.714172487     1.383340388     0.636308441     C.2   1  noname   -0.237270
   10   C10       -0.644152178     0.574539725     0.233840847     C.2   1  noname   -0.024976
   11   C11        0.771684656     1.018889112     0.512513943     C.3   1  noname   -0.073016
   12   H12        3.214898564     1.767283424    -0.038637537       H   1  noname    0.213621
   13   H13        3.819505579     0.181169407    -0.554297140       H   1  noname    0.214204
   14   H14        3.326278170     0.436748414     1.142650443       H   1  noname    0.171293
   15   H15        2.387047202    -1.654334940    -0.626228777       H   1  noname    0.120345
   16   H16        1.522969110    -1.439944888     0.909362584       H   1  noname    0.086367
   17   H17        0.376398863    -1.411086236    -1.928075579       H   1  noname    0.197957
   18   H18        0.017493082    -2.581146706    -0.655364010       H   1  noname    0.183623
   19   H19       -2.429162112    -2.009028248    -1.073752546       H   1  noname    0.181898
   20   H20       -4.316346453    -0.567691344    -0.358344280       H   1  noname    0.155221
   21   H21       -3.853172538     1.622635205     0.740752840       H   1  noname    0.155581
   22   H22       -1.509844869     2.340754963     1.114651885       H   1  noname    0.156232
   23   H23        0.984469420     0.888187781     1.595085539       H   1  noname    0.096207
   24   H24        0.869495798     2.091246656     0.301351832       H   1  noname    0.128520


@<TRIPOS>BOND
    1      1      2    1
    2      2      3    1
    3      3      4    1
    4      4      5    1
    5      5      6    2
    6      6      7    1
    7      7      8    2
    8      8      9    1
    9      9     10    2
   10     10     11    1
   11     11      2    1
   12     10      5    1
   13      1     12    1
   14      1     13    1
   15      1     14    1
   16      3     15    1
   17      3     16    1
   18      4     17    1
   19      4     18    1
   20      6     19    1
   21      7     20    1
   22      8     21    1
   23      9     22    1
   24     11     23    1
   25     11     24    1
#
#	File Created by: Spartan'20 Export
#

@<TRIPOS>MOLECULE
M0278
24 24
SMALL
USER_CHARGES


@<TRIPOS>ATOM
    1   C1        -2.756670715     0.000002171     0.081471995     C.3   1  noname   -0.541887
    2   N2        -1.374991564    -0.000000222     0.540342665     N.3   1  noname   -0.366697
    3   C3        -0.684254633    -1.185170292     0.060886083     C.3   1  noname    0.204148
    4   N4         0.687510079    -1.190782755     0.540308661     N.3   1  noname   -0.362567
    5   C5         1.368542381    -0.000000295     0.060876852     C.3   1  noname    0.179681
    6   N6         0.687509628     1.190781726     0.540308136     N.3   1  noname   -0.362567
    7   C7        -0.684253813     1.185168008     0.060883340     C.3   1  noname    0.204150
    8   C8         1.378325782     2.387371773     0.081440323     C.3   1  noname   -0.543051
    9   C9         1.378327397    -2.387371033     0.081438696     C.3   1  noname   -0.543050
   10   H10       -2.851157792    -0.000000503    -1.019859335       H   1  noname    0.138929
   11   H11       -3.263796725     0.886238091     0.472272944       H   1  noname    0.198289
   12   H12       -3.263796229    -0.886231596     0.472276718       H   1  noname    0.198289
   13   H13       -1.196065471    -2.071699019     0.451963413       H   1  noname    0.120476
   14   H14       -0.714874528    -1.238149173    -1.059242582       H   1  noname    0.049364
   15   H15        1.429734433    -0.000001084    -1.059248087       H   1  noname    0.054776
   16   H16        2.392203987    -0.000000140     0.451957817       H   1  noname    0.128145
   17   H17       -0.714872461     1.238142614    -1.059246018       H   1  noname    0.049363
   18   H18       -1.196065742     2.071698426     0.451956223       H   1  noname    0.120475
   19   H19        0.864339608     3.269654295     0.472221551       H   1  noname    0.199286
   20   H20        1.425602922     2.469196707    -1.019887457       H   1  noname    0.138963
   21   H21        2.399378664     2.383471125     0.472275848       H   1  noname    0.198618
   22   H22        1.425597400    -2.469196012    -1.019889401       H   1  noname    0.138963
   23   H23        0.864344452    -3.269653600     0.472223440       H   1  noname    0.199286
   24   H24        2.399382941    -2.383469213     0.472268173       H   1  noname    0.198618


@<TRIPOS>BOND
    1      1      2    1
    2      2      3    1
    3      3      4    1
    4      4      5    1
    5      5      6    1
    6      6      7    1
    7      6      8    1
    8      4      9    1
    9      7      2    1
   10      1     10    1
   11      1     11    1
   12      1     12    1
   13      3     13    1
   14      3     14    1
   15      5     15    1
   16      5     16    1
   17      7     17    1
   18      7     18    1
   19      8     19    1
   20      8     20    1
   21      8     21    1
   22      9     22    1
   23      9     23    1
   24      9     24    1
#
#	File Created by: Spartan'20 Export
#

@<TRIPOS>MOLECULE
M0279
24 25
SMALL
USER_CHARGES


@<TRIPOS>ATOM
    1   C1        -0.862891819     0.000005271    -2.264398703     C.3   1  noname   -0.601294
    2   N2        -0.893952773     0.000001243    -0.803084044     N.3   1  noname   -0.348800
    3   C3        -0.152046578    -1.141037665    -0.232155621     C.3   1  noname    0.305406
    4   C4        -0.564756218    -1.263036780     1.235632790     C.3   1  noname   -0.544006
    5   C5        -0.180429739    -0.000001747     2.012634755     C.3   1  noname    0.118638
    6   C6        -0.564761685     1.263032595     1.235632132     C.3   1  noname   -0.544007
    7   C7        -0.152044934     1.141037835    -0.232154188     C.3   1  noname    0.305409
    8   C8         1.346058116     0.773286408    -0.382044006     C.3   1  noname   -0.302473
    9   C9         1.346057484    -0.773289323    -0.382045481     C.3   1  noname   -0.302468
   10   H10       -1.392813820     0.885525140    -2.627110886       H   1  noname    0.198764
   11   H11       -1.392820116    -0.885509749    -2.627111410       H   1  noname    0.198764
   12   H12        0.147519132     0.000001389    -2.704999338       H   1  noname    0.195774
   13   H13       -0.416304883    -2.057495382    -0.773863932       H   1  noname    0.069828
   14   H14       -0.097431394    -2.147193042     1.688207033       H   1  noname    0.130015
   15   H15       -1.650543610    -1.407592540     1.267107262       H   1  noname    0.170769
   16   H16       -0.656035098    -0.000002361     3.000425475       H   1  noname    0.049631
   17   H17        0.900687104     0.000001463     2.198064737       H   1  noname    0.069430
   18   H18       -0.097438853     2.147190825     1.688206786       H   1  noname    0.130014
   19   H19       -1.650551139     1.407586315     1.267106894       H   1  noname    0.170769
   20   H20       -0.416301194     2.057497638    -0.773859718       H   1  noname    0.069827
   21   H21        1.748229790     1.167077745    -1.320683382       H   1  noname    0.104953
   22   H22        1.952172112     1.197009275     0.425589777       H   1  noname    0.125053
   23   H23        1.952171466    -1.197013128     0.425587649       H   1  noname    0.125052
   24   H24        1.748228649    -1.167081426    -1.320684579       H   1  noname    0.104952


@<TRIPOS>BOND
    1      1      2    1
    2      2      3    1
    3      3      4    1
    4      4      5    1
    5      5      6    1
    6      6      7    1
    7      7      8    1
    8      8      9    1
    9      7      2    1
   10      9      3    1
   11      1     10    1
   12      1     11    1
   13      1     12    1
   14      3     13    1
   15      4     14    1
   16      4     15    1
   17      5     16    1
   18      5     17    1
   19      6     18    1
   20      6     19    1
   21      7     20    1
   22      8     21    1
   23      8     22    1
   24      9     23    1
   25      9     24    1
#
#	File Created by: Spartan'20 Export
#

@<TRIPOS>MOLECULE
M0280
24 23
SMALL
USER_CHARGES


@<TRIPOS>ATOM
    1   C1         0.494323983     2.615560564     0.067650472     C.3   1  noname   -0.260814
    2   N2        -0.538814831     1.602438314     0.216499493     N.2   1  noname   -0.556336
    3   C3        -0.237199470     0.375744141    -0.052391532     C.2   1  noname    0.633276
    4   N4        -1.264824081    -0.560480017    -0.239705289   N.pl3   1  noname   -0.125604
    5   C5        -2.605420627     0.002529670    -0.343527495     C.3   1  noname   -0.657111
    6   C6        -1.222892686    -1.718435063     0.649543259     C.3   1  noname   -0.532368
    7   N7         1.056526189    -0.124537212    -0.259117083   N.pl3   1  noname    0.076985
    8   C8         1.315229129    -1.202519286    -1.192266882     C.3   1  noname   -0.578201
    9   C9         2.065464659     0.060900751     0.765396519     C.3   1  noname   -0.511795
   10   H10        0.029629292     3.517062226    -0.343847206       H   1  noname    0.137791
   11   H11        0.923759834     2.891856189     1.038547251       H   1  noname    0.115194
   12   H12        1.313249453     2.299740957    -0.592937018       H   1  noname    0.064755
   13   H13       -2.967439919     0.401016148     0.614047935       H   1  noname    0.198850
   14   H14       -2.596569858     0.816373914    -1.066543330       H   1  noname    0.213609
   15   H15       -3.280560370    -0.788681443    -0.684479933       H   1  noname    0.223464
   16   H16       -0.197950929    -2.071099710     0.759848973       H   1  noname    0.174320
   17   H17       -1.827583159    -2.526536916     0.227283733       H   1  noname    0.191663
   18   H18       -1.618317505    -1.473394943     1.648618813       H   1  noname    0.182127
   19   H19        1.429807542    -2.180138497    -0.697074973       H   1  noname    0.172339
   20   H20        2.245985038    -0.993280808    -1.734555804       H   1  noname    0.179932
   21   H21        0.492983334    -1.266632039    -1.902737646       H   1  noname    0.161064
   22   H22        2.281594930    -0.890088721     1.277364659       H   1  noname    0.148182
   23   H23        1.706504115     0.774579729     1.506815168       H   1  noname    0.192849
   24   H24        3.002515938     0.438022053     0.337567914       H   1  noname    0.155831


@<TRIPOS>BOND
    1      1      2    1
    2      2      3    2
    3      3      4    1
    4      4      5    1
    5      4      6    1
    6      3      7    1
    7      7      8    1
    8      7      9    1
    9      1     10    1
   10      1     11    1
   11      1     12    1
   12      5     13    1
   13      5     14    1
   14      5     15    1
   15      6     16    1
   16      6     17    1
   17      6     18    1
   18      8     19    1
   19      8     20    1
   20      8     21    1
   21      9     22    1
   22      9     23    1
   23      9     24    1
#
#	File Created by: Spartan'20 Export
#

@<TRIPOS>MOLECULE
M0281
26 26
SMALL
USER_CHARGES


@<TRIPOS>ATOM
    1   C1        -2.267738604     2.140055213    -0.125860432     C.3   1  noname   -0.115790
    2   N2        -0.870314629     1.783802973     0.075029071     N.2   1  noname   -0.541734
    3   C3        -0.519733050     0.538394284     0.019765762     C.2   1  noname    0.282443
    4   C4         0.943596370     0.259169166     0.009308717     C.2   1  noname    0.114364
    5   C5         1.473257988    -0.830932625     0.713674035     C.2   1  noname   -0.198186
    6   C6         2.850930121    -1.051337663     0.735574395     C.2   1  noname   -0.118419
    7   C7         3.709685596    -0.190994406     0.046924651     C.2   1  noname   -0.158527
    8   C8         3.184858645     0.898479826    -0.654020802     C.2   1  noname   -0.093151
    9   C9         1.809074463     1.124089893    -0.673226237     C.2   1  noname   -0.223923
   10   N10       -1.357367156    -0.577705102     0.004907715   N.pl3   1  noname    0.303298
   11   C11       -2.528151886    -0.677784212     0.853201456     C.3   1  noname   -0.772130
   12   C12       -1.081369572    -1.736051857    -0.822854045     C.3   1  noname   -0.574044
   13   H13       -2.786056599     2.295968304     0.827435450       H   1  noname    0.088300
   14   H14       -2.825001058     1.394564339    -0.707547978       H   1  noname    0.058609
   15   H15       -2.289023010     3.092874587    -0.661779227       H   1  noname    0.102373
   16   H16        0.803317822    -1.489356503     1.262349151       H   1  noname    0.120831
   17   H17        3.256065785    -1.891958661     1.294248684       H   1  noname    0.131798
   18   H18        4.783101249    -0.365730840     0.060368120       H   1  noname    0.138292
   19   H19        3.850958689     1.570797741    -1.190178170       H   1  noname    0.127202
   20   H20        1.383881050     1.974569423    -1.199035153       H   1  noname    0.163868
   21   H21       -3.471067231    -0.645618246     0.290946877       H   1  noname    0.205651
   22   H22       -2.493535220    -1.628215244     1.403245052       H   1  noname    0.205684
   23   H23       -2.521601757     0.134655365     1.579108332       H   1  noname    0.253621
   24   H24       -0.924715455    -2.639628909    -0.217252163       H   1  noname    0.160323
   25   H25       -1.924151856    -1.924013695    -1.501793596       H   1  noname    0.166581
   26   H26       -0.188900694    -1.558093151    -1.422539667       H   1  noname    0.172667


@<TRIPOS>BOND
    1      1      2    1
    2      2      3    2
    3      3      4    1
    4      4      5    2
    5      5      6    1
    6      6      7    2
    7      7      8    1
    8      8      9    2
    9      3     10    1
   10     10     11    1
   11     10     12    1
   12      9      4    1
   13      1     13    1
   14      1     14    1
   15      1     15    1
   16      5     16    1
   17      6     17    1
   18      7     18    1
   19      8     19    1
   20      9     20    1
   21     11     21    1
   22     11     22    1
   23     11     23    1
   24     12     24    1
   25     12     25    1
   26     12     26    1
#
#	File Created by: Spartan'20 Export
#

@<TRIPOS>MOLECULE
M0282
16 15
SMALL
USER_CHARGES


@<TRIPOS>ATOM
    1   C1         2.673396756     0.322815113     0.441074029     C.3   1  noname   -0.361072
    2   N2         1.335237241     0.594236648    -0.057733806     N.2   1  noname   -0.457873
    3   C3         0.406703470    -0.175714452     0.386178925     C.2   1  noname    0.440265
    4   N4        -0.925371779     0.019191092     0.103622170   N.pl3   1  noname   -0.194390
    5   C5        -1.252853456     1.027666806    -0.888687476     C.3   1  noname   -0.503393
    6   C6        -1.806495656    -1.132280414     0.148885450     C.3   1  noname   -0.450310
    7   H7         3.042914175     1.191579407     0.995515823       H   1  noname    0.151125
    8   H8         2.725684703    -0.557039292     1.102554459       H   1  noname    0.098920
    9   H9         3.350791293     0.159122203    -0.402827643       H   1  noname    0.156578
   10   H10        0.591742406    -1.024650639     1.064015041       H   1  noname    0.076592
   11   H11       -0.651135281     1.916081401    -0.696861778       H   1  noname    0.172206
   12   H12       -2.314993050     1.270906045    -0.802227293       H   1  noname    0.197101
   13   H13       -1.042032503     0.684369509    -1.911368530       H   1  noname    0.179219
   14   H14       -1.502400106    -1.792567759     0.965373096       H   1  noname    0.144686
   15   H15       -1.801631271    -1.707253393    -0.788868090       H   1  noname    0.171156
   16   H16       -2.829556943    -0.796462275     0.341355623       H   1  noname    0.179193


@<TRIPOS>BOND
    1      1      2    1
    2      2      3    2
    3      3      4    1
    4      4      5    1
    5      4      6    1
    6      1      7    1
    7      1      8    1
    8      1      9    1
    9      3     10    1
   10      5     11    1
   11      5     12    1
   12      5     13    1
   13      6     14    1
   14      6     15    1
   15      6     16    1
#
#	File Created by: Spartan'20 Export
#

@<TRIPOS>MOLECULE
M0283
10 9
SMALL
USER_CHARGES


@<TRIPOS>ATOM
    1   C1         0.108918622     1.206343533     0.046761361     C.3   1  noname   -0.164778
    2   N2        -0.685781402     0.000000924     0.244407506     N.3   1  noname   -0.631465
    3   C3         0.108913433    -1.206345844     0.046785861     C.3   1  noname   -0.164532
    4   H4         0.870991402     1.258622317     0.829331922       H   1  noname    0.123629
    5   H5         0.623236939     1.251316198    -0.928151432       H   1  noname    0.080583
    6   H6        -0.533541865     2.084814971     0.142343900       H   1  noname    0.093928
    7   H7        -1.453432820    -0.000006647    -0.425126258       H   1  noname    0.364615
    8   H8         0.870858279    -1.258663937     0.829492319       H   1  noname    0.123622
    9   H9        -0.533571453    -2.084828775     0.142217070       H   1  noname    0.093818
   10   H10        0.623408865    -1.251252741    -0.928062249       H   1  noname    0.080579


@<TRIPOS>BOND
    1      1      2    1
    2      2      3    1
    3      1      4    1
    4      1      5    1
    5      1      6    1
    6      2      7    1
    7      3      8    1
    8      3      9    1
    9      3     10    1
#
#	File Created by: Spartan'20 Export
#

@<TRIPOS>MOLECULE
M0284
19 19
SMALL
USER_CHARGES


@<TRIPOS>ATOM
    1   C1         3.341876798    -0.581149795     0.507509213     C.3   1  noname   -0.339531
    2   N2         1.889464909    -0.577120937     0.492967610   N.pl3   1  noname   -0.501418
    3   C3         1.218660354     0.168051348    -0.439076571     C.2   1  noname    0.664245
    4   O4         1.798913299     0.783044482    -1.340119844     O.2   1  noname   -0.574866
    5   C5        -0.271187196     0.182219679    -0.295431792     C.2   1  noname   -0.076967
    6   C6        -0.954362130     1.312048063    -0.759178647     C.2   1  noname   -0.116925
    7   C7        -2.341968631     1.380423892    -0.649527302     C.2   1  noname   -0.124212
    8   C8        -3.056614836     0.317907658    -0.087753863     C.2   1  noname   -0.121283
    9   C9        -2.378178828    -0.818874197     0.355004538     C.2   1  noname   -0.126586
   10   C10       -0.987741333    -0.889707431     0.254251372     C.2   1  noname   -0.143594
   11   H11        3.690141951    -1.446030685     1.074120773       H   1  noname    0.144535
   12   H12        3.693400965    -0.652456620    -0.521073323       H   1  noname    0.178701
   13   H13        3.750966623     0.333119542     0.949613704       H   1  noname    0.141611
   14   H14        1.398144866    -0.811923440     1.344564414       H   1  noname    0.331891
   15   H15       -0.380555686     2.117846151    -1.208132123       H   1  noname    0.145613
   16   H16       -2.869621598     2.262653832    -1.003503973       H   1  noname    0.132776
   17   H17       -4.139424617     0.371404696    -0.006631798       H   1  noname    0.135986
   18   H18       -2.932977041    -1.656346412     0.770720578       H   1  noname    0.134294
   19   H19       -0.468937868    -1.795109825     0.561677034       H   1  noname    0.115729


@<TRIPOS>BOND
    1      1      2    1
    2      2      3    1
    3      3      4    2
    4      3      5    1
    5      5      6    2
    6      6      7    1
    7      7      8    2
    8      8      9    1
    9      9     10    2
   10     10      5    1
   11      1     11    1
   12      1     12    1
   13      1     13    1
   14      2     14    1
   15      6     15    1
   16      7     16    1
   17      8     17    1
   18      9     18    1
   19     10     19    1
#
#	File Created by: Spartan'20 Export
#

@<TRIPOS>MOLECULE
M0285
9 8
SMALL
USER_CHARGES


@<TRIPOS>ATOM
    1   C1        -1.113299133    -0.133453754     0.060494792     C.3   1  noname   -0.232378
    2   N2         0.281627853    -0.452302589    -0.179041239   N.pl3   1  noname   -0.394713
    3   C3         1.282011443     0.447688412     0.027839110     C.2   1  noname    0.371454
    4   O4         1.129731340     1.598782898     0.428022800     O.2   1  noname   -0.510058
    5   H5        -1.538612702    -0.783883556     0.830891368       H   1  noname    0.106908
    6   H6        -1.148882184     0.898764202     0.405106857       H   1  noname    0.172188
    7   H7        -1.700702330    -0.228092724    -0.856304280       H   1  noname    0.108929
    8   H8         0.532285941    -1.374056344    -0.509875640       H   1  noname    0.301540
    9   H9         2.275839772     0.026553455    -0.207133768       H   1  noname    0.076130


@<TRIPOS>BOND
    1      1      2    1
    2      2      3    1
    3      3      4    2
    4      1      5    1
    5      1      6    1
    6      1      7    1
    7      2      8    1
    8      3      9    1
#
#	File Created by: Spartan'20 Export
#

@<TRIPOS>MOLECULE
M0286
12 11
SMALL
USER_CHARGES


@<TRIPOS>ATOM
    1   C1        -1.308580022     0.630144445     0.559193473     C.3   1  noname   -0.212062
    2   N2        -0.811154175    -0.722482192     0.320139195     N.3   1  noname   -0.595178
    3   C3         0.243174606    -0.747112504    -0.695134430     C.3   1  noname    0.000374
    4   C4         1.467395425    -0.104610413    -0.203097905     C.1   1  noname    0.078866
    5   C5         2.496413125     0.436978828     0.166957317     C.1   1  noname   -0.508892
    6   H6        -0.515435558     1.221979521     1.021210634       H   1  noname    0.151739
    7   H7        -1.637381210     1.152152531    -0.355485996       H   1  noname    0.089278
    8   H8        -2.148614206     0.581641937     1.256071761       H   1  noname    0.111571
    9   H9        -1.578835895    -1.303396631    -0.016108393       H   1  noname    0.342648
   10   H10        0.459596564    -1.794421421    -0.934420515       H   1  noname    0.111803
   11   H11       -0.055677153    -0.253263405    -1.638391512       H   1  noname    0.095306
   12   H12        3.389098499     0.902389306     0.519066370       H   1  noname    0.334547


@<TRIPOS>BOND
    1      1      2    1
    2      2      3    1
    3      3      4    1
    4      4      5    3
    5      1      6    1
    6      1      7    1
    7      1      8    1
    8      2      9    1
    9      3     10    1
   10      3     11    1
   11      5     12    1
#
#	File Created by: Spartan'20 Export
#

@<TRIPOS>MOLECULE
M0287
11 10
SMALL
USER_CHARGES


@<TRIPOS>ATOM
    1   C1        -1.550936852    -0.083370573    -0.136046872     C.3   1  noname   -0.328200
    2   N2        -0.176649608    -0.441834151    -0.479696342     N.3   1  noname   -0.616992
    3   C3         0.778162285     0.396451959     0.236665845     C.3   1  noname    0.139360
    4   C4         2.154682941     0.009578483    -0.102880862     C.1   1  noname    0.183490
    5   N5         3.260662203    -0.318754429    -0.351802291     N.1   1  noname   -0.387938
    6   H6        -1.758337903     0.923630036    -0.508735597       H   1  noname    0.156675
    7   H7        -2.230692316    -0.775471148    -0.636976389       H   1  noname    0.160530
    8   H8        -1.762773498    -0.100137530     0.945615848       H   1  noname    0.112651
    9   H9        -0.008358782    -1.415705981    -0.230538665       H   1  noname    0.381691
   10   H10        0.623934848     1.436762573    -0.071193744       H   1  noname    0.124008
   11   H11        0.670306682     0.368850762     1.335589069       H   1  noname    0.074725


@<TRIPOS>BOND
    1      1      2    1
    2      2      3    1
    3      3      4    1
    4      4      5    3
    5      1      6    1
    6      1      7    1
    7      1      8    1
    8      2      9    1
    9      3     10    1
   10      3     11    1
#
#	File Created by: Spartan'20 Export
#

@<TRIPOS>MOLECULE
M0288
14 13
SMALL
USER_CHARGES


@<TRIPOS>ATOM
    1   C1        -1.960615590     0.738212525    -0.234228956     C.3   1  noname   -0.370543
    2   N2        -0.524333929     0.630025764    -0.000874600     N.3   1  noname   -0.565621
    3   C3        -0.056656934    -0.744735891    -0.116605394     C.3   1  noname    0.235565
    4   C4         1.422041693    -0.866451243     0.125435408     C.2   1  noname   -0.258975
    5   C5         2.272591648     0.165864578     0.168252709     C.2   1  noname   -0.390370
    6   H6        -2.569609975     0.070281228     0.397643753       H   1  noname    0.112571
    7   H7        -2.278148419     1.768702006    -0.056982604       H   1  noname    0.152832
    8   H8        -2.170378647     0.495254214    -1.279633352       H   1  noname    0.155738
    9   H9        -0.314059176     0.954978156     0.942792023       H   1  noname    0.354987
   10   H10       -0.289100285    -1.091153149    -1.133637271       H   1  noname    0.072577
   11   H11       -0.591306300    -1.436877456     0.562939021       H   1  noname    0.014120
   12   H12        1.796955159    -1.880029931     0.266126972       H   1  noname    0.148905
   13   H13        3.331631074     0.013182732     0.348767611       H   1  noname    0.180796
   14   H14        1.930989680     1.182746466     0.010004681       H   1  noname    0.157420


@<TRIPOS>BOND
    1      1      2    1
    2      2      3    1
    3      3      4    1
    4      4      5    2
    5      1      6    1
    6      1      7    1
    7      1      8    1
    8      2      9    1
    9      3     10    1
   10      3     11    1
   11      4     12    1
   12      5     13    1
   13      5     14    1
#
#	File Created by: Spartan'20 Export
#

@<TRIPOS>MOLECULE
M0289
14 13
SMALL
USER_CHARGES


@<TRIPOS>ATOM
    1   C1        -1.921911579     0.195238976     0.020218021     C.3   1  noname   -0.160386
    2   N2        -0.821347233     0.775895813     0.782140921     N.3   1  noname   -0.725602
    3   C3         0.475030681     0.696157083     0.132950800     C.3   1  noname    0.067525
    4   C4         1.002713865    -0.736615178    -0.115351254     C.3   1  noname   -0.040114
    5   C5         2.330389161    -0.716565002    -0.731046896     C.1   1  noname    0.162900
    6   N6         3.400726755    -0.652005584    -1.226134533     N.1   1  noname   -0.394874
    7   H7        -2.855238165     0.374563301     0.559326793       H   1  noname    0.116266
    8   H8        -1.987139365     0.709001301    -0.943434588       H   1  noname    0.128179
    9   H9        -1.844312041    -0.885637306    -0.174857117       H   1  noname    0.064693
   10   H10       -0.774053172     0.353403121     1.707751357       H   1  noname    0.377391
   11   H11        1.201813228     1.237775312     0.746910041       H   1  noname    0.078815
   12   H12        0.408980028     1.222132987    -0.825802493       H   1  noname    0.112481
   13   H13        0.323183206    -1.293363449    -0.767568457       H   1  noname    0.112288
   14   H14        1.061164631    -1.279981376     0.834897406       H   1  noname    0.100438


@<TRIPOS>BOND
    1      1      2    1
    2      2      3    1
    3      3      4    1
    4      4      5    1
    5      5      6    3
    6      1      7    1
    7      1      8    1
    8      1      9    1
    9      2     10    1
   10      3     11    1
   11      3     12    1
   12      4     13    1
   13      4     14    1
#
#	File Created by: Spartan'20 Export
#

@<TRIPOS>MOLECULE
M0290
20 20
SMALL
USER_CHARGES


@<TRIPOS>ATOM
    1   C1         3.318271622     0.243981372    -0.235908918     C.3   1  noname   -0.271558
    2   N2         1.889987033     0.545358929    -0.223380449     N.3   1  noname   -0.590627
    3   C3         1.079949779    -0.657325764    -0.040529546     C.3   1  noname   -0.055522
    4   C4        -0.385844672    -0.309844279     0.022246865     C.2   1  noname    0.172852
    5   C5        -0.938714421     0.557339719    -0.929828556     C.2   1  noname   -0.235394
    6   C6        -2.296165157     0.875348123    -0.890541596     C.2   1  noname   -0.079570
    7   C7        -3.118632692     0.330588279     0.099576355     C.2   1  noname   -0.192380
    8   C8        -2.574195213    -0.530899936     1.052847364     C.2   1  noname   -0.075044
    9   C9        -1.213526293    -0.845461840     1.014565745     C.2   1  noname   -0.269281
   10   H10        3.545779634    -0.357154742    -1.121325935       H   1  noname    0.142269
   11   H11        3.883033798     1.176897190    -0.305886522       H   1  noname    0.128181
   12   H12        3.667614018    -0.312875966     0.649569935       H   1  noname    0.100323
   13   H13        1.685979207     1.183821717     0.546378167       H   1  noname    0.354676
   14   H14        1.274763251    -1.313545406    -0.900053912       H   1  noname    0.114776
   15   H15        1.359675528    -1.235348119     0.860604952       H   1  noname    0.081288
   16   H16       -0.288813741     0.986605154    -1.688047011       H   1  noname    0.146729
   17   H17       -2.715173443     1.549410353    -1.634384599       H   1  noname    0.124747
   18   H18       -4.176841913     0.579349820     0.129108218       H   1  noname    0.138632
   19   H19       -3.206321986    -0.953251318     1.830808706       H   1  noname    0.125135
   20   H20       -0.790824339    -1.512993288     1.764180738       H   1  noname    0.139769


@<TRIPOS>BOND
    1      1      2    1
    2      2      3    1
    3      3      4    1
    4      4      5    2
    5      5      6    1
    6      6      7    2
    7      7      8    1
    8      8      9    2
    9      9      4    1
   10      1     10    1
   11      1     11    1
   12      1     12    1
   13      2     13    1
   14      3     14    1
   15      3     15    1
   16      5     16    1
   17      6     17    1
   18      7     18    1
   19      8     19    1
   20      9     20    1
#
#	File Created by: Spartan'20 Export
#

@<TRIPOS>MOLECULE
M0291
16 16
SMALL
USER_CHARGES


@<TRIPOS>ATOM
    1   C1        -2.586216284    -0.009793031     0.142339178     C.3   1  noname   -0.240168
    2   N2        -1.467357238     0.910626536     0.203740180     N.3   1  noname   -0.735999
    3   C3        -0.165291441     0.450495337     0.095470923     C.2   1  noname    0.995693
    4   C4         0.159450765    -0.746671887    -0.569425104     C.2   1  noname   -0.629304
    5   C5         1.499825137    -1.096796484    -0.683175613     C.2   1  noname    0.164289
    6   C6         2.477990346    -0.260568876    -0.142576213     C.2   1  noname   -0.563798
    7   C7         2.055696945     0.898602705     0.503961155     C.2   1  noname    0.396325
    8   N8         0.769162256     1.260743993     0.632001398     N.2   1  noname   -0.795102
    9   H9        -3.497613630     0.543691366     0.378298371       H   1  noname    0.149926
   10   H10       -2.493256509    -0.856160689     0.840205791       H   1  noname    0.099650
   11   H11       -2.694557482    -0.408917923    -0.868979041       H   1  noname    0.128651
   12   H12       -1.532980177     1.637907420     0.909533623       H   1  noname    0.389005
   13   H13       -0.613232006    -1.383854321    -0.986867737       H   1  noname    0.220413
   14   H14        1.776986266    -2.017086285    -1.192742104       H   1  noname    0.128618
   15   H15        3.533823560    -0.502125895    -0.212999884       H   1  noname    0.204509
   16   H16        2.777569491     1.579908035     0.951215076       H   1  noname    0.087293


@<TRIPOS>BOND
    1      1      2    1
    2      2      3    1
    3      3      4    2
    4      4      5    1
    5      5      6    2
    6      6      7    1
    7      7      8    2
    8      8      3    1
    9      1      9    1
   10      1     10    1
   11      1     11    1
   12      2     12    1
   13      4     13    1
   14      5     14    1
   15      6     15    1
   16      7     16    1
#
#	File Created by: Spartan'20 Export
#

@<TRIPOS>MOLECULE
M0292
6 5
SMALL
USER_CHARGES


@<TRIPOS>ATOM
    1   C1        -0.123351416    -0.000000103    -0.340754391     C.3   1  noname   -0.061637
    2   O2        -0.199511980    -0.000002576     1.081299152     O.3   1  noname   -0.617781
    3   H3         0.382437120    -0.891861213    -0.729965315       H   1  noname    0.067918
    4   H4        -1.151666265     0.000001422    -0.700098085       H   1  noname    0.125469
    5   H5         0.382437321     0.891859561    -0.729960992       H   1  noname    0.067918
    6   H6         0.709655220     0.000002909     1.419479631       H   1  noname    0.418113


@<TRIPOS>BOND
    1      1      2    1
    2      1      3    1
    3      1      4    1
    4      1      5    1
    5      2      6    1
#
#	File Created by: Spartan'20 Export
#

@<TRIPOS>MOLECULE
M0293
11 10
SMALL
USER_CHARGES


@<TRIPOS>ATOM
    1   C1         0.224018254    -0.000262284     1.905632611     C.3   1  noname   -0.345448
    2   O2         0.592750310    -0.000971665     0.505810812     O.3   1  noname   -0.397159
    3   C3        -0.450977595     0.000098303    -0.329071943     C.2   1  noname    0.866194
    4   O4        -1.621993699     0.001522986    -0.011286335     O.2   1  noname   -0.549458
    5   C5         0.053148606    -0.000048967    -1.792341229     C.3   1  noname   -0.033561
    6   Cl6       -1.322201878    -0.001418745    -2.891556834      Cl   1  noname   -0.036503
    7   Cl7        1.034938878     1.456904534    -2.049961325      Cl   1  noname   -0.033238
    8   Cl8        1.037348888    -1.455457404    -2.049668442      Cl   1  noname   -0.033282
    9   H9        -0.359882264    -0.891226165     2.136409432       H   1  noname    0.181524
   10   H10       -0.357666373     0.892227868     2.136010586       H   1  noname    0.181489
   11   H11        1.170516874    -0.001368462     2.440022666       H   1  noname    0.199442


@<TRIPOS>BOND
    1      1      2    1
    2      2      3    1
    3      3      4    2
    4      3      5    1
    5      5      6    1
    6      5      7    1
    7      5      8    1
    8      1      9    1
    9      1     10    1
   10      1     11    1
#
#	File Created by: Spartan'20 Export
#

@<TRIPOS>MOLECULE
M0294
12 11
SMALL
USER_CHARGES


@<TRIPOS>ATOM
    1   C1        -2.327449769     0.000001474    -0.071979668     C.3   1  noname   -0.231931
    2   O2        -1.083708524     0.000013102    -0.800148643     O.3   1  noname   -0.432779
    3   C3         0.000016431     0.000001349    -0.004199808     C.2   1  noname    1.077137
    4   O4         0.000064117    -0.000002084     1.213668220     O.2   1  noname   -0.639021
    5   O5         1.083702278    -0.000009385    -0.800188722     O.3   1  noname   -0.432784
    6   C6         2.327433575    -0.000001490    -0.071978190     C.3   1  noname   -0.231913
    7   H7        -2.402755073     0.890231422     0.553316348       H   1  noname    0.138727
    8   H8        -2.402747604    -0.890234753     0.553317807       H   1  noname    0.138726
    9   H9        -3.098236742    -0.000002638    -0.839237402       H   1  noname    0.168199
   10   H10        3.098249228    -0.000001398    -0.839211090       H   1  noname    0.168190
   11   H11        2.402714672    -0.890228504     0.553320780       H   1  noname    0.138726
   12   H12        2.402717412     0.890232905     0.553320369       H   1  noname    0.138724


@<TRIPOS>BOND
    1      1      2    1
    2      2      3    1
    3      3      4    2
    4      3      5    1
    5      5      6    1
    6      1      7    1
    7      1      8    1
    8      1      9    1
    9      6     10    1
   10      6     11    1
   11      6     12    1
#
#	File Created by: Spartan'20 Export
#

@<TRIPOS>MOLECULE
M0295
17 17
SMALL
USER_CHARGES


@<TRIPOS>ATOM
    1   C1        -0.525168294     0.000026478    -3.271355336     C.3   1  noname   -0.314109
    2   O2        -0.736043153     0.000064460    -1.844033240     O.3   1  noname   -0.371983
    3   C3         0.405360625    -0.000018705    -1.117960679     C.2   1  noname    0.840992
    4   O4         1.523744654    -0.000097280    -1.609455065     O.2   1  noname   -0.583702
    5   C5         0.134291127    -0.000011920     0.346092420     C.2   1  noname   -0.485845
    6   C6         1.223425686     0.000023385     1.220327184     C.2   1  noname    0.255288
    7   C7         0.970603061     0.000031801     2.587875850     C.2   1  noname   -0.526679
    8   C8        -0.355336946    -0.000000546     3.025764514     C.2   1  noname    0.478089
    9   N9        -1.414516570    -0.000046818     2.196127336     N.2   1  noname   -0.670244
   10   C10       -1.161293988    -0.000048672     0.876625303     C.2   1  noname    0.468486
   11   H11        0.028485383    -0.890022779    -3.571694386       H   1  noname    0.166482
   12   H12       -1.523675350     0.000099259    -3.701850125       H   1  noname    0.175262
   13   H13        0.028620134     0.889980622    -3.571732459       H   1  noname    0.166482
   14   H14        2.232562535     0.000037909     0.818317454       H   1  noname    0.102211
   15   H15        1.784200549     0.000060950     3.307490713       H   1  noname    0.191900
   16   H16       -0.588238438     0.000007859     4.088898834       H   1  noname    0.052833
   17   H17       -2.027021016    -0.000086001     0.220561682       H   1  noname    0.054540


@<TRIPOS>BOND
    1      1      2    1
    2      2      3    1
    3      3      4    2
    4      3      5    1
    5      5      6    2
    6      6      7    1
    7      7      8    2
    8      8      9    1
    9      9     10    2
   10     10      5    1
   11      1     11    1
   12      1     12    1
   13      1     13    1
   14      6     14    1
   15      7     15    1
   16      8     16    1
   17     10     17    1
#
#	File Created by: Spartan'20 Export
#

@<TRIPOS>MOLECULE
M0296
9 8
SMALL
USER_CHARGES


@<TRIPOS>ATOM
    1   C1        -1.163683564    -0.456897121    -0.003849291     C.3   1  noname   -0.342096
    2   O2        -0.115608476     0.123555079    -0.793508932     O.3   1  noname   -0.230811
    3   C3         0.976691411     0.488919400    -0.047967567     C.3   1  noname    0.132639
    4   Cl4        1.969057602     1.550620784    -1.045176750      Cl   1  noname   -0.095344
    5   Cl5        1.935548240    -0.937448401     0.498462062      Cl   1  noname   -0.126671
    6   H6        -0.853311906    -1.420554730     0.408570497       H   1  noname    0.161182
    7   H7        -1.455443831     0.219583150     0.807846116       H   1  noname    0.151929
    8   H8        -1.998018496    -0.594787349    -0.688435137       H   1  noname    0.188000
    9   H9         0.704769020     1.027009189     0.864059001       H   1  noname    0.161171


@<TRIPOS>BOND
    1      1      2    1
    2      2      3    1
    3      3      4    1
    4      3      5    1
    5      1      6    1
    6      1      7    1
    7      1      8    1
    8      3      9    1
#
#	File Created by: Spartan'20 Export
#

@<TRIPOS>MOLECULE
M0297
21 20
SMALL
USER_CHARGES


@<TRIPOS>ATOM
    1   C1         0.109506630     1.804124062     1.531497827     C.3   1  noname   -0.323267
    2   O2         0.821520958     0.822017855     0.765285544     O.3   1  noname   -0.363795
    3   C3        -0.000250132    -0.000066281     0.000809809     C.3   1  noname    0.883646
    4   O4         0.822734161    -0.821565708    -0.763095406     O.3   1  noname   -0.360676
    5   C5         1.802954432    -0.108784297    -1.531223493     C.3   1  noname   -0.338730
    6   O6        -0.822949599     0.822015530    -0.762795720     O.3   1  noname   -0.361439
    7   C7        -1.803073764     0.109560949    -1.531410846     C.3   1  noname   -0.329773
    8   O8        -0.821951940    -0.822843969     0.764638143     O.3   1  noname   -0.365043
    9   C9        -0.109423529    -1.804826185     1.530795375     C.3   1  noname   -0.322683
   10   H10       -0.755685215     1.352515329     2.023869783       H   1  noname    0.156134
   11   H11        0.820620354     2.161476480     2.277211394       H   1  noname    0.165648
   12   H12       -0.216104207     2.629557342     0.895573617       H   1  noname    0.144491
   13   H13        2.623934118     0.227051543    -0.895992087       H   1  noname    0.148642
   14   H14        2.166964183    -0.821877814    -2.270254489       H   1  noname    0.170258
   15   H15        1.347740874     0.748976851    -2.031205822       H   1  noname    0.159122
   16   H16       -2.626680521    -0.222161069    -0.897346056       H   1  noname    0.146484
   17   H17       -1.348965983    -0.750889216    -2.027666435       H   1  noname    0.157236
   18   H18       -2.163246942     0.821339662    -2.273591616       H   1  noname    0.167639
   19   H19        0.211086251    -2.633105357     0.896230694       H   1  noname    0.144446
   20   H20        0.758939964    -1.354553994     2.018084463       H   1  noname    0.155972
   21   H21       -0.817670093    -2.157961713     2.280585323       H   1  noname    0.165688


@<TRIPOS>BOND
    1      1      2    1
    2      2      3    1
    3      3      4    1
    4      4      5    1
    5      3      6    1
    6      6      7    1
    7      3      8    1
    8      8      9    1
    9      1     10    1
   10      1     11    1
   11      1     12    1
   12      5     13    1
   13      5     14    1
   14      5     15    1
   15      7     16    1
   16      7     17    1
   17      7     18    1
   18      9     19    1
   19      9     20    1
   20      9     21    1
#
#	File Created by: Spartan'20 Export
#

@<TRIPOS>MOLECULE
M0298
17 16
SMALL
USER_CHARGES


@<TRIPOS>ATOM
    1   C1         1.858660560    -1.427727585    -0.037687175     C.3   1  noname   -0.337627
    2   O2         0.548712591    -1.185905507    -0.550133952     O.3   1  noname   -0.349145
    3   C3        -0.000433098    -0.000583987    -0.076207892     C.3   1  noname    0.649213
    4   O4        -1.300167262     0.116237627    -0.554248098     O.3   1  noname   -0.341505
    5   C5        -2.166726832    -0.894645308    -0.038572642     C.3   1  noname   -0.351581
    6   O6         0.751251722     1.066821750    -0.552437157     O.3   1  noname   -0.344534
    7   C7         0.308476939     2.322603998    -0.036912684     C.3   1  noname   -0.367576
    8   H8         1.868236962    -1.367242391     1.058307730       H   1  noname    0.121591
    9   H9         2.120827033    -2.439413298    -0.345986934       H   1  noname    0.179879
   10   H10        2.577102006    -0.714111363    -0.445108186       H   1  noname    0.156756
   11   H11       -0.001570623     0.000237977     1.038880610       H   1  noname    0.037019
   12   H12       -1.907836703    -1.876868609    -0.440748774       H   1  noname    0.159026
   13   H13       -2.121780397    -0.928101019     1.058221221       H   1  noname    0.124968
   14   H14       -3.172989191    -0.615501227    -0.349955984       H   1  noname    0.182835
   15   H15       -0.671415669     2.589274727    -0.439512870       H   1  noname    0.162418
   16   H16        0.256407143     2.300087655     1.059864612       H   1  noname    0.130123
   17   H17        1.053244819     3.054836559    -0.347761824       H   1  noname    0.188140


@<TRIPOS>BOND
    1      1      2    1
    2      2      3    1
    3      3      4    1
    4      4      5    1
    5      3      6    1
    6      6      7    1
    7      1      8    1
    8      1      9    1
    9      1     10    1
   10      3     11    1
   11      5     12    1
   12      5     13    1
   13      5     14    1
   14      7     15    1
   15      7     16    1
   16      7     17    1
#
#	File Created by: Spartan'20 Export
#

@<TRIPOS>MOLECULE
M0299
17 16
SMALL
USER_CHARGES


@<TRIPOS>ATOM
    1   C1         2.581721172     0.906980428    -0.286537987     C.3   1  noname   -0.348413
    2   O2         1.212294991     0.620693716    -0.511274448     O.3   1  noname   -0.273260
    3   C3         0.848624201    -0.644836361     0.025157636     C.3   1  noname   -0.098937
    4   C4        -0.628459780    -0.863753553    -0.234092860     C.3   1  noname   -0.267998
    5   C5        -1.510217053     0.170817154     0.450867882     C.3   1  noname    0.396249
    6   N6        -2.923809283    -0.155413862     0.218279483     N.3   1  noname   -1.005880
    7   H7         2.776862938     1.885974036    -0.726201289       H   1  noname    0.168634
    8   H8         3.231447545     0.159529924    -0.763191479       H   1  noname    0.144995
    9   H9         2.814580877     0.938447526     0.787139034       H   1  noname    0.138707
   10   H10        1.448700713    -1.441256676    -0.444088313       H   1  noname    0.114336
   11   H11        1.058075215    -0.670273114     1.107952656       H   1  noname    0.102118
   12   H12       -0.917283237    -1.861308857     0.115317928       H   1  noname    0.104576
   13   H13       -0.798594269    -0.836473132    -1.317423382       H   1  noname    0.122617
   14   H14       -1.334558035     0.130663234     1.532165882       H   1  noname    0.020348
   15   H15       -1.216730529     1.174165411     0.112625737       H   1  noname   -0.031571
   16   H16       -3.512429642     0.518987953     0.706243029       H   1  noname    0.352698
   17   H17       -3.130225825    -0.032943828    -0.772939508       H   1  noname    0.360781


@<TRIPOS>BOND
    1      1      2    1
    2      2      3    1
    3      3      4    1
    4      4      5    1
    5      5      6    1
    6      1      7    1
    7      1      8    1
    8      1      9    1
    9      3     10    1
   10      3     11    1
   11      4     12    1
   12      4     13    1
   13      5     14    1
   14      5     15    1
   15      6     16    1
   16      6     17    1
#
#	File Created by: Spartan'20 Export
#

@<TRIPOS>MOLECULE
M0300
14 13
SMALL
USER_CHARGES


@<TRIPOS>ATOM
    1   C1         2.360697375     0.102959406    -0.243305136     C.3   1  noname   -0.240393
    2   O2         1.185868391     0.040377219     0.546276184     O.3   1  noname   -0.426423
    3   C3         0.016939619     0.055515549    -0.257802467     C.3   1  noname    0.174995
    4   C4        -1.181538685     0.013485051     0.669897226     C.3   1  noname    0.203635
    5   N5        -2.408130491    -0.005890103    -0.133719575     N.3   1  noname   -1.010850
    6   H6         3.206471240     0.086824344     0.445550882       H   1  noname    0.158705
    7   H7         2.395490446     1.025610819    -0.838996426       H   1  noname    0.113822
    8   H8         2.432280105    -0.756192132    -0.925229216       H   1  noname    0.108271
    9   H9        -0.027629428     0.961612070    -0.879538517       H   1  noname    0.052765
   10   H10        0.006230597    -0.813736337    -0.937489422       H   1  noname    0.054589
   11   H11       -1.179253489     0.921643209     1.279186380       H   1  noname    0.063024
   12   H12       -1.064219506    -0.839623039     1.354904281       H   1  noname    0.004456
   13   H13       -2.527833232    -0.928283918    -0.548783294       H   1  noname    0.365065
   14   H14       -3.215372943     0.135697861     0.469049101       H   1  noname    0.378339


@<TRIPOS>BOND
    1      1      2    1
    2      2      3    1
    3      3      4    1
    4      4      5    1
    5      1      6    1
    6      1      7    1
    7      1      8    1
    8      3      9    1
    9      3     10    1
   10      4     11    1
   11      4     12    1
   12      5     13    1
   13      5     14    1
#
#	File Created by: Spartan'20 Export
#

@<TRIPOS>MOLECULE
M0301
16 15
SMALL
USER_CHARGES


@<TRIPOS>ATOM
    1   C1         0.123922523     0.000000871    -2.967632565     C.3   1  noname   -0.259880
    2   O2        -0.530756861     0.000003850    -1.710051260     O.3   1  noname   -0.357174
    3   C3         0.401135391     0.000012736    -0.641089972     C.3   1  noname    0.021102
    4   C4        -0.401038902    -0.000042219     0.641096605     C.3   1  noname    0.021062
    5   O5         0.530793083    -0.000019601     1.710110494     O.3   1  noname   -0.357161
    6   C6        -0.123987787     0.000020237     2.967641382     C.3   1  noname   -0.259892
    7   H7         0.752272544     0.891910234    -3.090655797       H   1  noname    0.121209
    8   H8        -0.656300346     0.000072664    -3.728761902       H   1  noname    0.157642
    9   H9         0.752161733    -0.891984567    -3.090701808       H   1  noname    0.121210
   10   H10        1.046803499     0.889321839    -0.677441694       H   1  noname    0.097948
   11   H11        1.046873463    -0.889242007    -0.677470974       H   1  noname    0.097950
   12   H12       -1.046689690    -0.889358249     0.677404980       H   1  noname    0.097958
   13   H13       -1.046780045     0.889208457     0.677433730       H   1  noname    0.097959
   14   H14       -0.752241294     0.892005812     3.090637208       H   1  noname    0.121214
   15   H15        0.656183776    -0.000015038     3.728839588       H   1  noname    0.157643
   16   H16       -0.752351086    -0.891895020     3.090641985       H   1  noname    0.121211


@<TRIPOS>BOND
    1      1      2    1
    2      2      3    1
    3      3      4    1
    4      4      5    1
    5      5      6    1
    6      1      7    1
    7      1      8    1
    8      1      9    1
    9      3     10    1
   10      3     11    1
   11      4     12    1
   12      4     13    1
   13      6     14    1
   14      6     15    1
   15      6     16    1
#
#	File Created by: Spartan'20 Export
#

@<TRIPOS>MOLECULE
M0302
13 12
SMALL
USER_CHARGES


@<TRIPOS>ATOM
    1   C1         0.308653929     2.063678417    -0.058989493     C.3   1  noname   -0.225203
    2   O2        -0.433659573     1.290306679     0.882796332     O.3   1  noname   -0.357170
    3   C3        -0.675923990     0.000428262     0.432056988     C.3   1  noname    0.162969
    4   O4         0.549790201    -0.695456552     0.305816344     O.3   1  noname   -0.256767
    5   C5         0.350925790    -1.995352739    -0.227012876     C.3   1  noname   -0.385008
    6   H6         0.332527561     3.079412970     0.334891632       H   1  noname    0.147107
    7   H7        -0.187851725     2.063224803    -1.038546316       H   1  noname    0.116975
    8   H8         1.326167163     1.682529372    -0.170344165       H   1  noname    0.133600
    9   H9        -1.193670724     0.008419735    -0.547517432       H   1  noname    0.085380
   10   H10       -1.319794102    -0.476226026     1.183586953       H   1  noname    0.102979
   11   H11       -0.103080492    -1.957969951    -1.227019761       H   1  noname    0.143197
   12   H12       -0.288897401    -2.604319409     0.426162983       H   1  noname    0.147840
   13   H13        1.334813365    -2.458675561    -0.295881189       H   1  noname    0.184101


@<TRIPOS>BOND
    1      1      2    1
    2      2      3    1
    3      3      4    1
    4      4      5    1
    5      1      6    1
    6      1      7    1
    7      1      8    1
    8      3      9    1
    9      3     10    1
   10      5     11    1
   11      5     12    1
   12      5     13    1
#
#	File Created by: Spartan'20 Export
#

@<TRIPOS>MOLECULE
M0303
12 11
SMALL
USER_CHARGES


@<TRIPOS>ATOM
    1   C1        -2.132389803     0.415447361     0.208833061     C.3   1  noname   -0.487088
    2   O2        -1.364767716     0.294795161    -1.010789719     O.3   1  noname   -0.194824
    3   S3        -0.072917709    -0.723929023    -0.874869145       S   1  noname    0.612672
    4   O4         0.602481611    -0.681957105    -2.175344982     O.2   1  noname   -0.451852
    5   O5         0.727705834     0.301989408     0.189714041     O.3   1  noname   -0.242221
    6   C6         2.062313317    -0.165069914     0.479128073     C.3   1  noname   -0.365804
    7   H7        -3.081463324     0.855095828    -0.092452324       H   1  noname    0.227754
    8   H8        -2.311511956    -0.565456630     0.662185236       H   1  noname    0.176832
    9   H9        -1.614300986     1.063896991     0.916439192       H   1  noname    0.195564
   10   H10        2.050061257    -1.187645869     0.873038628       H   1  noname    0.150005
   11   H11        2.687269313    -0.119495812    -0.415351050       H   1  noname    0.196758
   12   H12        2.447520161     0.512329605     1.239468990       H   1  noname    0.182203


@<TRIPOS>BOND
    1      1      2    1
    2      2      3    1
    3      3      4    2
    4      3      5    1
    5      5      6    1
    6      1      7    1
    7      1      8    1
    8      1      9    1
    9      6     10    1
   10      6     11    1
   11      6     12    1
#
#	File Created by: Spartan'20 Export
#

@<TRIPOS>MOLECULE
M0304
17 17
SMALL
USER_CHARGES


@<TRIPOS>ATOM
    1   C1         0.441276979     0.000029814    -2.965656559     C.3   1  noname   -0.296923
    2   O2        -0.669049400    -0.000028849    -2.068276785     O.3   1  noname   -0.367103
    3   C3        -0.389110610    -0.000029304    -0.732242898     C.2   1  noname    0.592282
    4   C4         0.898813137    -0.000045224    -0.182729404     C.2   1  noname   -0.388771
    5   C5         1.056845569    -0.000031801     1.203556172     C.2   1  noname   -0.120119
    6   C6        -0.062384575    -0.000012526     2.044292071     C.2   1  noname    0.034178
    7   C7        -1.353896864    -0.000008659     1.488456528     C.2   1  noname   -0.067909
    8   C8        -1.511433953    -0.000023442     0.110889075     C.2   1  noname   -0.433405
    9   C9         0.108214928     0.000035887     3.468211389     C.1   1  noname    0.232381
   10   N10        0.247607519     0.000113676     4.643875415     N.1   1  noname   -0.413327
   11   H11        0.003814472     0.000062043    -3.963009016       H   1  noname    0.183857
   12   H12        1.057335967    -0.895535778    -2.833662949       H   1  noname    0.145021
   13   H13        1.057290278     0.895611721    -2.833591646       H   1  noname    0.145021
   14   H14        1.782083751    -0.000069278    -0.811743742       H   1  noname    0.188568
   15   H15        2.054852269    -0.000042570     1.634453750       H   1  noname    0.183840
   16   H16       -2.223774825    -0.000001401     2.139899879       H   1  noname    0.173718
   17   H17       -2.498484644    -0.000024307    -0.342721279       H   1  noname    0.208690


@<TRIPOS>BOND
    1      1      2    1
    2      2      3    1
    3      3      4    2
    4      4      5    1
    5      5      6    2
    6      6      7    1
    7      7      8    2
    8      6      9    1
    9      9     10    3
   10      8      3    1
   11      1     11    1
   12      1     12    1
   13      1     13    1
   14      4     14    1
   15      5     15    1
   16      7     16    1
   17      8     17    1
#
#	File Created by: Spartan'20 Export
#

@<TRIPOS>MOLECULE
M0305
32 33
SMALL
USER_CHARGES


@<TRIPOS>ATOM
    1   C1         6.121496125     0.266067183    -0.635323970     C.3   1  noname   -0.276986
    2   O2         4.941961284    -0.271056393    -1.230868828     O.3   1  noname   -0.370812
    3   C3         3.781332039    -0.161112099    -0.516199974     C.2   1  noname    0.608116
    4   C4         3.667990975     0.449745189     0.739901952     C.2   1  noname   -0.414637
    5   C5         2.424919536     0.492271838     1.368697101     C.2   1  noname   -0.061233
    6   C6         1.285666539    -0.040911692     0.756819941     C.2   1  noname   -0.143633
    7   C7         1.412657959    -0.656263763    -0.500890499     C.2   1  noname    0.034885
    8   C8         2.650393873    -0.721273233    -1.126783013     C.2   1  noname   -0.501751
    9   C9         0.000229121    -0.001959774     1.508644682     C.2   1  noname    0.527357
   10   O10        0.000518378    -0.003597021     2.746164233     O.2   1  noname   -0.542720
   11   C11       -1.285459665     0.039084286     0.757293576     C.2   1  noname   -0.142974
   12   C12       -1.411671386     0.653812424    -0.500878906     C.2   1  noname    0.033558
   13   C13       -2.649896332     0.721354148    -1.125668833     C.2   1  noname   -0.500616
   14   C14       -3.782005234     0.163950831    -0.513830691     C.2   1  noname    0.606890
   15   C15       -3.669475824    -0.446241901     0.742691850     C.2   1  noname   -0.413816
   16   C16       -2.425991590    -0.491129206     1.370481161     C.2   1  noname   -0.061692
   17   O17       -4.943015526     0.276447248    -1.227500625     O.3   1  noname   -0.372190
   18   C18       -6.120964405    -0.266579275    -0.636608901     C.3   1  noname   -0.266944
   19   H19        6.919827222     0.072016819    -1.350911410       H   1  noname    0.173818
   20   H20        6.028606612     1.345283586    -0.472316970       H   1  noname    0.135217
   21   H21        6.349510615    -0.231212286     0.313773898       H   1  noname    0.141101
   22   H22        4.528659713     0.885967991     1.235231208       H   1  noname    0.187127
   23   H23        2.323031685     0.941612114     2.353269931       H   1  noname    0.167116
   24   H24        0.547701278    -1.112257461    -0.975023994       H   1  noname    0.118301
   25   H25        2.773633674    -1.205981329    -2.091444729       H   1  noname    0.210931
   26   H26       -0.545902672     1.107732947    -0.976174874       H   1  noname    0.118680
   27   H27       -2.772645276     1.205863594    -2.090519469       H   1  noname    0.210707
   28   H28       -4.531137540    -0.879714517     1.239352452       H   1  noname    0.186760
   29   H29       -2.324796727    -0.939829128     2.355511451       H   1  noname    0.167194
   30   H30       -6.024308139    -1.345240147    -0.476844753       H   1  noname    0.132777
   31   H31       -6.352211664     0.226348834     0.313103442       H   1  noname    0.138479
   32   H32       -6.918654649    -0.073199806    -1.353146441       H   1  noname    0.170991


@<TRIPOS>BOND
    1      1      2    1
    2      2      3    1
    3      3      4    2
    4      4      5    1
    5      5      6    2
    6      6      7    1
    7      7      8    2
    8      6      9    1
    9      9     10    2
   10      9     11    1
   11     11     12    2
   12     12     13    1
   13     13     14    2
   14     14     15    1
   15     15     16    2
   16     14     17    1
   17     17     18    1
   18      8      3    1
   19     16     11    1
   20      1     19    1
   21      1     20    1
   22      1     21    1
   23      4     22    1
   24      5     23    1
   25      7     24    1
   26      8     25    1
   27     12     26    1
   28     13     27    1
   29     15     28    1
   30     16     29    1
   31     18     30    1
   32     18     31    1
   33     18     32    1
#
#	File Created by: Spartan'20 Export
#

@<TRIPOS>MOLECULE
M0306
28 29
SMALL
USER_CHARGES


@<TRIPOS>ATOM
    1   C1         4.809019685     0.695512289    -1.016003443     C.3   1  noname   -0.270674
    2   O2         4.351193264     0.190251429     0.236845196     O.3   1  noname   -0.367340
    3   C3         3.014764677    -0.072933987     0.349192409     C.2   1  noname    0.579915
    4   C4         2.607838800    -0.571287367     1.597854280     C.2   1  noname   -0.444615
    5   C5         1.275796490    -0.876860230     1.823627242     C.2   1  noname   -0.022632
    6   C6         0.314771469    -0.667049235     0.819015195     C.2   1  noname   -0.081712
    7   C7         0.729110142    -0.176736148    -0.424899214     C.2   1  noname   -0.071716
    8   C8         2.073334886     0.115280801    -0.669202205     C.2   1  noname   -0.413786
    9   C9        -1.093266268    -1.061179241     1.096624855     C.2   1  noname    0.437821
   10   O10       -1.346710694    -1.938910304     1.930273083     O.2   1  noname   -0.521646
   11   C11       -2.205646473    -0.389211200     0.358872376     C.2   1  noname    0.078343
   12   C12       -3.371185345    -1.127442174     0.110446978     C.2   1  noname   -0.194607
   13   C13       -4.453178697    -0.530498983    -0.532877690     C.2   1  noname   -0.126646
   14   C14       -4.390466864     0.814709071    -0.909601819     C.2   1  noname   -0.111606
   15   C15       -3.241330731     1.560301717    -0.639347693     C.2   1  noname   -0.159772
   16   C16       -2.145828855     0.961670793    -0.014389430     C.2   1  noname   -0.157242
   17   H17        4.332255715     1.651694476    -1.256708295       H   1  noname    0.133424
   18   H18        5.881438545     0.841820421    -0.894080127       H   1  noname    0.173076
   19   H19        4.625495565    -0.020636723    -1.823624334       H   1  noname    0.139581
   20   H20        3.363152671    -0.712768156     2.366536078       H   1  noname    0.202464
   21   H21        0.952924298    -1.283646982     2.778507959       H   1  noname    0.159730
   22   H22        0.006227733    -0.046963391    -1.226445327       H   1  noname    0.134163
   23   H23        2.365678005     0.478887059    -1.648582643       H   1  noname    0.185962
   24   H24       -3.409789638    -2.164923063     0.432886264       H   1  noname    0.172503
   25   H25       -5.350347628    -1.110595212    -0.736163932       H   1  noname    0.136772
   26   H26       -5.238368010     1.281912949    -1.405293519       H   1  noname    0.137672
   27   H27       -3.198243517     2.611668182    -0.914392408       H   1  noname    0.142338
   28   H28       -1.258639224     1.547933208     0.210930166       H   1  noname    0.130229


@<TRIPOS>BOND
    1      1      2    1
    2      2      3    1
    3      3      4    2
    4      4      5    1
    5      5      6    2
    6      6      7    1
    7      7      8    2
    8      6      9    1
    9      9     10    2
   10      9     11    1
   11     11     12    2
   12     12     13    1
   13     13     14    2
   14     14     15    1
   15     15     16    2
   16      8      3    1
   17     16     11    1
   18      1     17    1
   19      1     18    1
   20      1     19    1
   21      4     20    1
   22      5     21    1
   23      7     22    1
   24      8     23    1
   25     12     24    1
   26     13     25    1
   27     14     26    1
   28     15     27    1
   29     16     28    1
#
#	File Created by: Spartan'20 Export
#

@<TRIPOS>MOLECULE
M0307
18 18
SMALL
USER_CHARGES


@<TRIPOS>ATOM
    1   C1         0.163762283    -0.000000806    -3.188833416     C.3   1  noname   -0.291279
    2   O2        -0.865262636     0.000031090    -2.200938984     O.3   1  noname   -0.362746
    3   C3        -0.471578771     0.000011672    -0.892710051     C.2   1  noname    0.578474
    4   C4         0.858813555     0.000010985    -0.457053261     C.2   1  noname   -0.357351
    5   C5         1.124145165     0.000002736     0.913688373     C.2   1  noname   -0.170270
    6   C6         0.084532638    -0.000011352     1.845300387     C.2   1  noname   -0.039416
    7   C7        -1.246656049    -0.000020003     1.398558463     C.2   1  noname    0.002821
    8   C8        -1.522446530    -0.000013216     0.041760122     C.2   1  noname   -0.455486
    9   C9         0.389343611     0.000006843     3.288369265     C.2   1  noname    0.364572
   10   O10       -0.457360457     0.000051547     4.178080281     O.2   1  noname   -0.490925
   11   H11        0.788545235    -0.895332757    -3.110512377       H   1  noname    0.139274
   12   H12       -0.356378317     0.000024924    -4.145099152       H   1  noname    0.182909
   13   H13        0.788621702     0.895279618    -3.110496435       H   1  noname    0.139275
   14   H14        1.683912433     0.000021476    -1.160507238       H   1  noname    0.182249
   15   H15        2.157649625     0.000008085     1.257897498       H   1  noname    0.163812
   16   H16       -2.047840423    -0.000034606     2.133038000       H   1  noname    0.155145
   17   H17       -2.542590702    -0.000022150    -0.331650683       H   1  noname    0.205766
   18   H18        1.470787635    -0.000014086     3.541109208       H   1  noname    0.053176


@<TRIPOS>BOND
    1      1      2    1
    2      2      3    1
    3      3      4    2
    4      4      5    1
    5      5      6    2
    6      6      7    1
    7      7      8    2
    8      6      9    1
    9      9     10    2
   10      8      3    1
   11      1     11    1
   12      1     12    1
   13      1     13    1
   14      4     14    1
   15      5     15    1
   16      7     16    1
   17      8     17    1
   18      9     18    1
#
#	File Created by: Spartan'20 Export
#

@<TRIPOS>MOLECULE
M0308
18 18
SMALL
USER_CHARGES


@<TRIPOS>ATOM
    1   C1         0.454727785    -0.000008484    -3.154188909     C.3   1  noname   -0.289936
    2   O2        -0.661375954     0.000047002    -2.263632685     O.3   1  noname   -0.366955
    3   C3        -0.389992510     0.000021510    -0.926621598     C.2   1  noname    0.594818
    4   C4         0.895272765     0.000016072    -0.369540973     C.2   1  noname   -0.385196
    5   C5         1.049159479     0.000002071     1.017489403     C.2   1  noname   -0.061994
    6   C6        -0.082474568    -0.000006021     1.824229064     C.2   1  noname   -0.108414
    7   C7        -1.371954775    -0.000005581     1.289391550     C.2   1  noname   -0.014019
    8   C8        -1.517870074     0.000000055    -0.090045122     C.2   1  noname   -0.427031
    9   N9         0.083670920    -0.000003596     3.279169242       N   1  noname    0.772576
   10   O10       -0.944455457    -0.000030721     3.977838437       O   1  noname   -0.463180
   11   O11        1.241903061     0.000025745     3.730277770     O.2   1  noname   -0.462759
   12   H12        1.069350227    -0.895653254    -3.018125515       H   1  noname    0.144582
   13   H13        0.023364750    -0.000014530    -4.153976231       H   1  noname    0.184489
   14   H14        1.069403175     0.895604094    -3.018150045       H   1  noname    0.144583
   15   H15        1.781442306     0.000028055    -0.994070695       H   1  noname    0.186725
   16   H16        2.034271576    -0.000004365     1.470939237       H   1  noname    0.177228
   17   H17       -2.232571223    -0.000012358     1.948851841       H   1  noname    0.168482
   18   H18       -2.501871482    -0.000005694    -0.549834771       H   1  noname    0.206002


@<TRIPOS>BOND
    1      1      2    1
    2      2      3    1
    3      3      4    2
    4      4      5    1
    5      5      6    2
    6      6      7    1
    7      7      8    2
    8      6      9    1
    9      9     10    1
   10      9     11    2
   11      8      3    1
   12      1     12    1
   13      1     13    1
   14      1     14    1
   15      4     15    1
   16      5     16    1
   17      7     17    1
   18      8     18    1
#
#	File Created by: Spartan'20 Export
#

@<TRIPOS>MOLECULE
M0309
18 18
SMALL
USER_CHARGES


@<TRIPOS>ATOM
    1   C1        -1.875608007     0.000257537     2.037789364     C.3   1  noname   -0.337120
    2   O2        -0.492207343    -0.003322011     1.690248803     O.3   1  noname   -0.285509
    3   C3        -0.181955651    -0.001242501     0.366638491     C.2   1  noname    0.499839
    4   C4        -1.132776030    -0.001147463    -0.662743595     C.2   1  noname   -0.395525
    5   C5        -0.724467502    -0.000130124    -1.998757003     C.2   1  noname   -0.025738
    6   C6         0.628534320     0.000753898    -2.333262546     C.2   1  noname   -0.227673
    7   C7         1.573070206     0.000799743    -1.309826130     C.2   1  noname   -0.118816
    8   C8         1.194496327    -0.000183623     0.037698891     C.2   1  noname   -0.186457
    9   C9         2.288176864    -0.000259706     1.037489142     C.2   1  noname    0.403933
   10   O10        2.175002336     0.003957365     2.257170292     O.2   1  noname   -0.481211
   11   H11       -2.383278439    -0.894312983     1.662071187       H   1  noname    0.147946
   12   H12       -2.379194144     0.896879270     1.661567690       H   1  noname    0.148157
   13   H13       -1.890926174     0.000719378     3.126413934       H   1  noname    0.190886
   14   H14       -2.193451488    -0.002166834    -0.438365735       H   1  noname    0.184081
   15   H15       -1.480138818    -0.000147289    -2.780958200       H   1  noname    0.140971
   16   H16        0.940976161     0.001469750    -3.373594611       H   1  noname    0.151542
   17   H17        2.635506695     0.001708992    -1.550219332       H   1  noname    0.148933
   18   H18        3.298240689    -0.003633398     0.570639358       H   1  noname    0.041760


@<TRIPOS>BOND
    1      1      2    1
    2      2      3    1
    3      3      4    2
    4      4      5    1
    5      5      6    2
    6      6      7    1
    7      7      8    2
    8      8      9    1
    9      9     10    2
   10      8      3    1
   11      1     11    1
   12      1     12    1
   13      1     13    1
   14      4     14    1
   15      5     15    1
   16      6     16    1
   17      7     17    1
   18      9     18    1
#
#	File Created by: Spartan'20 Export
#

@<TRIPOS>MOLECULE
M0310
20 20
SMALL
USER_CHARGES


@<TRIPOS>ATOM
    1   C1        -2.706214736     0.000029216    -1.455289097     C.3   1  noname   -0.276569
    2   O2        -1.282758914    -0.000124012    -1.417913351     O.3   1  noname   -0.320431
    3   C3        -0.708198361    -0.000054688    -0.176783472     C.2   1  noname    0.279608
    4   C4        -1.398322996    -0.000056180     1.034303906     C.2   1  noname   -0.265364
    5   C5        -0.694201254    -0.000009621     2.247109298     C.2   1  noname   -0.186787
    6   C6         0.694079886     0.000031113     2.247055733     C.2   1  noname   -0.186789
    7   C7         1.398280365     0.000027198     1.034234348     C.2   1  noname   -0.265411
    8   C8         0.708242405    -0.000017509    -0.176825882     C.2   1  noname    0.279684
    9   O9         1.282791798    -0.000025484    -1.417937577     O.3   1  noname   -0.320437
   10   C10        2.706250571    -0.000001810    -1.455318877     C.3   1  noname   -0.276543
   11   H11       -3.118876094    -0.894346514    -0.975489096       H   1  noname    0.136848
   12   H12       -3.118702863     0.894468865    -0.975485187       H   1  noname    0.136847
   13   H13       -2.964996950     0.000075461    -2.513518117       H   1  noname    0.168453
   14   H14       -2.482800984    -0.000106247     1.049554257       H   1  noname    0.169048
   15   H15       -1.245434737    -0.000013641     3.183713426       H   1  noname    0.158339
   16   H16        1.245371781     0.000060008     3.183637238       H   1  noname    0.158320
   17   H17        2.482760202     0.000050782     1.049597819       H   1  noname    0.169055
   18   H18        3.118880065    -0.894393837    -0.975525834       H   1  noname    0.136844
   19   H19        3.118842741     0.894416458    -0.975562049       H   1  noname    0.136845
   20   H20        2.965008075    -0.000009560    -2.513557487       H   1  noname    0.168443


@<TRIPOS>BOND
    1      1      2    1
    2      2      3    1
    3      3      4    2
    4      4      5    1
    5      5      6    2
    6      6      7    1
    7      7      8    2
    8      8      9    1
    9      9     10    1
   10      8      3    1
   11      1     11    1
   12      1     12    1
   13      1     13    1
   14      4     14    1
   15      5     15    1
   16      6     16    1
   17      7     17    1
   18     10     18    1
   19     10     19    1
   20     10     20    1
#
#	File Created by: Spartan'20 Export
#

@<TRIPOS>MOLECULE
M0311
15 15
SMALL
USER_CHARGES


@<TRIPOS>ATOM
    1   C1         0.320478955     0.000016926    -2.658102098     C.3   1  noname   -0.315719
    2   O2        -0.739456087    -0.000092662    -1.691079235     O.3   1  noname   -0.446007
    3   C3        -0.347531844    -0.000042784    -0.390202468     C.2   1  noname    1.021284
    4   C4        -1.373627346    -0.000005072     0.570272897     C.2   1  noname   -0.753411
    5   C5        -1.007175780     0.000029425     1.906374229     C.2   1  noname    0.302661
    6   C6         0.353474506     0.000015646     2.242385423     C.2   1  noname   -0.565697
    7   C7         1.284358503    -0.000033220     1.212513513     C.2   1  noname    0.353508
    8   N8         0.951355723    -0.000063405    -0.096979452     N.2   1  noname   -0.706409
    9   H9         0.946700306    -0.888207324    -2.551654041       H   1  noname    0.150249
   10   H10       -0.186474832     0.000021318    -3.622505742       H   1  noname    0.183920
   11   H11        0.946563908     0.888318098    -2.551602563       H   1  noname    0.150244
   12   H12       -2.410209191    -0.000004363     0.249251181       H   1  noname    0.246243
   13   H13       -1.769706333     0.000060601     2.681193644       H   1  noname    0.096257
   14   H14        0.678986616     0.000037884     3.277965892       H   1  noname    0.197498
   15   H15        2.352262894    -0.000051069     1.422168821       H   1  noname    0.085378


@<TRIPOS>BOND
    1      1      2    1
    2      2      3    1
    3      3      4    2
    4      4      5    1
    5      5      6    2
    6      6      7    1
    7      7      8    2
    8      8      3    1
    9      1      9    1
   10      1     10    1
   11      1     11    1
   12      4     12    1
   13      5     13    1
   14      6     14    1
   15      7     15    1
#
#	File Created by: Spartan'20 Export
#

@<TRIPOS>MOLECULE
M0312
16 16
SMALL
USER_CHARGES


@<TRIPOS>ATOM
    1   C1        -0.339291788     0.000295997     2.701172787     C.3   1  noname   -0.277994
    2   O2         0.739964476    -0.000083005     1.769968072     O.3   1  noname   -0.357029
    3   C3         0.399252664    -0.000703425     0.444802588     C.2   1  noname    0.523301
    4   C4        -0.898042470    -0.000655740    -0.070928673     C.2   1  noname   -0.353909
    5   C5        -1.104996339    -0.000459660    -1.443166043     C.2   1  noname   -0.166577
    6   N6        -0.058532574     0.000355705    -2.337113126       N   1  noname    0.497298
    7   O7        -0.259851429     0.002480322    -3.590924783       O   1  noname   -0.650528
    8   C8         1.226566971    -0.000498579    -1.825932702     C.2   1  noname   -0.098732
    9   C9         1.461312947    -0.000690088    -0.468324186     C.2   1  noname   -0.400096
   10   H10       -0.958963972    -0.895723293     2.591159381       H   1  noname    0.140070
   11   H11        0.128657373     0.001859250     3.683829698       H   1  noname    0.180727
   12   H12       -0.959976910     0.895319675     2.588945879       H   1  noname    0.140064
   13   H13       -1.774704225    -0.000809301     0.566902802       H   1  noname    0.199800
   14   H14       -2.077498803     0.000009041    -1.919497202       H   1  noname    0.209061
   15   H15        1.993390594     0.000005321    -2.590468915       H   1  noname    0.194412
   16   H16        2.482713485    -0.000702220    -0.100425575       H   1  noname    0.220134


@<TRIPOS>BOND
    1      1      2    1
    2      2      3    1
    3      3      4    2
    4      4      5    1
    5      5      6    2
    6      6      7    1
    7      6      8    1
    8      8      9    2
    9      9      3    1
   10      1     10    1
   11      1     11    1
   12      1     12    1
   13      4     13    1
   14      5     14    1
   15      8     15    1
   16      9     16    1
#
#	File Created by: Spartan'20 Export
#

@<TRIPOS>MOLECULE
M0313
14 13
SMALL
USER_CHARGES


@<TRIPOS>ATOM
    1   C1        -1.659030817     0.000003440    -0.123526222     C.3   1  noname   -0.890634
    2   P2        -0.000000238     0.000000440     0.624475137       P   1  noname    1.371713
    3   O3         0.000073104    -0.000010349     2.131358428     O.2   1  noname   -0.788886
    4   C4         0.829509811    -1.436617375    -0.123852088     C.3   1  noname   -0.879327
    5   C5         0.829511704     1.436613019    -0.123850883     C.3   1  noname   -0.879329
    6   H6        -2.205661145     0.884960532     0.211188187       H   1  noname    0.235606
    7   H7        -1.614189911     0.000029888    -1.216231143       H   1  noname    0.223513
    8   H8        -2.205658818    -0.884971074     0.211146483       H   1  noname    0.235608
    9   H9         0.807708306    -1.397008308    -1.216518489       H   1  noname    0.221188
   10   H10        0.335966803    -2.352520715     0.209858626       H   1  noname    0.232720
   11   H11        1.869044231    -1.468123578     0.211309657       H   1  noname    0.231959
   12   H12        0.807752443     1.396975742    -1.216516398       H   1  noname    0.221189
   13   H13        1.869034224     1.468152480     0.211345341       H   1  noname    0.231960
   14   H14        0.335940305     2.352515859     0.209813366       H   1  noname    0.232721


@<TRIPOS>BOND
    1      1      2    1
    2      2      3    2
    3      2      4    1
    4      2      5    1
    5      1      6    1
    6      1      7    1
    7      1      8    1
    8      4      9    1
    9      4     10    1
   10      4     11    1
   11      5     12    1
   12      5     13    1
   13      5     14    1
#
#	File Created by: Spartan'20 Export
#

@<TRIPOS>MOLECULE
M0314
11 10
SMALL
USER_CHARGES


@<TRIPOS>ATOM
    1   C1         1.403070753     0.000005826    -0.324509851     C.3   1  noname   -0.782368
    2   S2         0.000000055     0.000005991     0.778862665       S   1  noname    1.382518
    3   O3        -0.000011392     1.278809579     1.502056631     O.2   1  noname   -0.642611
    4   O4         0.000008556    -1.278791643     1.502066165     O.2   1  noname   -0.642611
    5   C5        -1.403069687    -0.000007734    -0.324512230     C.3   1  noname   -0.782370
    6   H6         2.290207543    -0.000038720     0.311893748       H   1  noname    0.256163
    7   H7         1.388333383    -0.900871346    -0.939463709       H   1  noname    0.238778
    8   H8         1.388385102     0.900923940    -0.939411158       H   1  noname    0.238778
    9   H9        -1.388360496     0.900880042    -0.939451377       H   1  noname    0.238780
   10   H10       -2.290202331    -0.000000387     0.311896680       H   1  noname    0.256163
   11   H11       -1.388361486    -0.900915549    -0.939427563       H   1  noname    0.238778


@<TRIPOS>BOND
    1      1      2    1
    2      2      3    2
    3      2      4    2
    4      2      5    1
    5      1      6    1
    6      1      7    1
    7      1      8    1
    8      5      9    1
    9      5     10    1
   10      5     11    1
#
#	File Created by: Spartan'20 Export
#

@<TRIPOS>MOLECULE
M0315
10 9
SMALL
USER_CHARGES


@<TRIPOS>ATOM
    1   C1        -0.060348452    -1.341832193     0.214023290     C.3   1  noname   -0.574422
    2   S2        -0.531170299    -0.000000412    -0.903572477       S   1  noname    0.440055
    3   O3         0.453937357    -0.000000608    -2.050003515     O.2   1  noname   -0.524584
    4   C4        -0.060350077     1.341832470     0.214023090     C.3   1  noname   -0.574423
    5   H5         1.003570638    -1.257996227     0.450634418       H   1  noname    0.217528
    6   H6        -0.239202606    -2.281547054    -0.311526809       H   1  noname    0.213780
    7   H7        -0.665399098    -1.306566250     1.123657470       H   1  noname    0.185379
    8   H8        -0.665401926     1.306565716     1.123656795       H   1  noname    0.185379
    9   H9        -0.239204541     2.281547562    -0.311527414       H   1  noname    0.213780
   10   H10        1.003569003     1.257996996     0.450635151       H   1  noname    0.217528


@<TRIPOS>BOND
    1      1      2    1
    2      2      3    2
    3      2      4    1
    4      1      5    1
    5      1      6    1
    6      1      7    1
    7      4      8    1
    8      4      9    1
    9      4     10    1
#
#	File Created by: Spartan'20 Export
#

@<TRIPOS>MOLECULE
M0316
17 17
SMALL
USER_CHARGES


@<TRIPOS>ATOM
    1   C1         2.621464915     0.418358807    -0.387947939     C.3   1  noname   -0.464974
    2   S2         1.871348104    -0.438618087     1.020554602       S   1  noname    0.307154
    3   O3         2.170226903    -1.912385893     0.848117761     O.2   1  noname   -0.513455
    4   C4         0.166971825    -0.171227414     0.487861323     C.2   1  noname    0.232037
    5   C5        -0.524711862    -1.257710027    -0.043756279     C.2   1  noname   -0.134870
    6   C6        -1.851594789    -1.084669581    -0.443325456     C.2   1  noname   -0.165075
    7   C7        -2.473262377     0.158020343    -0.299013037     C.2   1  noname   -0.149246
    8   C8        -1.770945351     1.234740477     0.251388332     C.2   1  noname   -0.052707
    9   C9        -0.445869691     1.072335404     0.658071425     C.2   1  noname   -0.343396
   10   H10        2.322061594    -0.095079324    -1.304520432       H   1  noname    0.175708
   11   H11        3.705963142     0.364480637    -0.269440911       H   1  noname    0.200624
   12   H12        2.296286226     1.461024798    -0.405017177       H   1  noname    0.152421
   13   H13       -0.014226763    -2.214871708    -0.125758146       H   1  noname    0.153780
   14   H14       -2.403498388    -1.923156201    -0.861386656       H   1  noname    0.151988
   15   H15       -3.507666513     0.287595647    -0.607400417       H   1  noname    0.142379
   16   H16       -2.260072592     2.197910863     0.375324557       H   1  noname    0.129347
   17   H17        0.097525615     1.903251258     1.106248448       H   1  noname    0.178286


@<TRIPOS>BOND
    1      1      2    1
    2      2      3    2
    3      2      4    1
    4      4      5    2
    5      5      6    1
    6      6      7    2
    7      7      8    1
    8      8      9    2
    9      9      4    1
   10      1     10    1
   11      1     11    1
   12      1     12    1
   13      5     13    1
   14      6     14    1
   15      7     15    1
   16      8     16    1
   17      9     17    1
#
#	File Created by: Spartan'20 Export
#

@<TRIPOS>MOLECULE
M0317
9 8
SMALL
USER_CHARGES


@<TRIPOS>ATOM
    1   C1         1.369227623     0.000012752    -0.022138589     C.3   1  noname   -0.459238
    2   S2        -0.000000004     0.000000733    -1.200727044     S.3   1  noname   -0.109770
    3   C3        -1.369227926    -0.000013222    -0.022138843     C.3   1  noname   -0.459238
    4   H4         1.348871873    -0.891921331     0.608872771       H   1  noname    0.165357
    5   H5         1.348955913     0.892106133     0.608665322       H   1  noname    0.165344
    6   H6         2.298504408    -0.000074822    -0.595035461       H   1  noname    0.183422
    7   H7        -2.298504691     0.000073970    -0.595035565       H   1  noname    0.183423
    8   H8        -1.348871317     0.891921750     0.608871737       H   1  noname    0.165357
    9   H9        -1.348955879    -0.892105964     0.608665671       H   1  noname    0.165344


@<TRIPOS>BOND
    1      1      2    1
    2      2      3    1
    3      1      4    1
    4      1      5    1
    5      1      6    1
    6      3      7    1
    7      3      8    1
    8      3      9    1
#
#	File Created by: Spartan'20 Export
#

@<TRIPOS>MOLECULE
M0318
7 6
SMALL
USER_CHARGES


@<TRIPOS>ATOM
    1   C1         0.059200820     0.000001271    -0.964152572     C.3   1  noname   -0.473108
    2   S2        -1.219527566     0.000001603     0.330418516     S.3   1  noname   -0.003994
    3   C3        -0.200818750    -0.000000106     1.687568681     C.1   1  noname    0.304922
    4   N4         0.486342204    -0.000005552     2.653933385     N.1   1  noname   -0.406398
    5   H5        -0.477250485    -0.000002354    -1.914683456       H   1  noname    0.217679
    6   H6         0.676028553    -0.895546981    -0.896539559       H   1  noname    0.180449
    7   H7         0.676025224     0.895552118    -0.896544995       H   1  noname    0.180449


@<TRIPOS>BOND
    1      1      2    1
    2      2      3    1
    3      3      4    3
    4      1      5    1
    5      1      6    1
    6      1      7    1
#
#	File Created by: Spartan'20 Export
#

@<TRIPOS>MOLECULE
M0319
10 9
SMALL
USER_CHARGES


@<TRIPOS>ATOM
    1   C1         1.810051795    -0.386500009     0.105707759     C.3   1  noname   -0.503763
    2   S2         0.904159817     0.488146851    -1.200265623     S.3   1  noname   -0.042546
    3   S3        -0.904137259    -0.488072880    -1.200313887     S.3   1  noname   -0.042541
    4   C4        -1.810053668     0.386492116     0.105695573     C.3   1  noname   -0.503775
    5   H5         1.892713304    -1.449048157    -0.125598538       H   1  noname    0.166946
    6   H6         2.810420064     0.053349916     0.141411426       H   1  noname    0.196593
    7   H7         1.333437682    -0.255309835     1.078786078       H   1  noname    0.182769
    8   H8        -1.892830480     1.449019596    -0.125615295       H   1  noname    0.166949
    9   H9        -1.333395380     0.255375895     1.078745632       H   1  noname    0.182775
   10   H10       -2.810365875    -0.053453493     0.141446875       H   1  noname    0.196595


@<TRIPOS>BOND
    1      1      2    1
    2      2      3    1
    3      3      4    1
    4      1      5    1
    5      1      6    1
    6      1      7    1
    7      4      8    1
    8      4      9    1
    9      4     10    1
#
#	File Created by: Spartan'20 Export
#

@<TRIPOS>MOLECULE
M0320
27 28
SMALL
USER_CHARGES


@<TRIPOS>ATOM
    1   C1         0.789705690     2.033424781     0.607885526     C.3   1  noname   -0.882205
    2   C2        -0.081147739     0.838123123     0.298493307     C.3   1  noname    0.409311
    3   C3        -1.087489409     1.064050379    -0.868802296     C.3   1  noname   -0.150029
    4   C4        -1.497579976    -0.366033111    -1.307323851     C.3   1  noname   -0.485966
    5   C5        -0.728404077    -1.254503690    -0.314177507     C.3   1  noname    0.200577
    6   C6         0.608606796    -0.494456445    -0.132356415     C.3   1  noname    0.758325
    7   C7         1.431735245    -0.383995097    -1.415268534     C.3   1  noname   -0.901791
    8   C8         1.513718400    -1.080883824     0.953427849     C.3   1  noname   -0.847059
    9   C9        -1.400077224    -1.058946267     1.051862087     C.3   1  noname   -0.675652
   10   C10       -0.960880293     0.348516028     1.429313741     C.2   1  noname    0.154700
   11   S11       -1.383123644     1.156234053     2.773425836     S.2   1  noname   -0.279373
   12   H12        1.463734080     1.825210289     1.443969916       H   1  noname    0.203949
   13   H13        1.386974065     2.308237710    -0.267054630       H   1  noname    0.211109
   14   H14        0.173347669     2.891481260     0.889629248       H   1  noname    0.187855
   15   H15       -1.934464593     1.676613856    -0.541736521       H   1  noname    0.094973
   16   H16       -0.587788136     1.613979917    -1.674225763       H   1  noname    0.078982
   17   H17       -1.210302154    -0.569903970    -2.343205712       H   1  noname    0.124539
   18   H18       -2.577875161    -0.531803589    -1.238517247       H   1  noname    0.161974
   19   H19       -0.630858757    -2.302343851    -0.622214297       H   1  noname    0.014936
   20   H20        0.885353524     0.059763085    -2.249196448       H   1  noname    0.212443
   21   H21        1.762580156    -1.381872161    -1.725756011       H   1  noname    0.189861
   22   H22        2.328315243     0.220506162    -1.242493657       H   1  noname    0.208535
   23   H23        1.042681495    -1.115558562     1.938937855       H   1  noname    0.205478
   24   H24        1.815282594    -2.099802441     0.682715942       H   1  noname    0.177023
   25   H25        2.425860635    -0.481350237     1.047855265       H   1  noname    0.202932
   26   H26       -1.054686558    -1.775764348     1.805488733       H   1  noname    0.199170
   27   H27       -2.493217871    -1.138923051     1.019323586       H   1  noname    0.225401


@<TRIPOS>BOND
    1      2      1    1
    2      2      3    1
    3      3      4    1
    4      4      5    1
    5      5      6    1
    6      6      7    1
    7      6      8    1
    8      5      9    1
    9      9     10    1
   10     10     11    2
   11      6      2    1
   12     10      2    1
   13      1     12    1
   14      1     13    1
   15      1     14    1
   16      3     15    1
   17      3     16    1
   18      4     17    1
   19      4     18    1
   20      5     19    1
   21      7     20    1
   22      7     21    1
   23      7     22    1
   24      8     23    1
   25      8     24    1
   26      8     25    1
   27      9     26    1
   28      9     27    1
#
#	File Created by: Spartan'20 Export
#

@<TRIPOS>MOLECULE
M0321
16 15
SMALL
USER_CHARGES


@<TRIPOS>ATOM
    1   C1        -1.037171714     0.000000274    -1.300605088     C.3   1  noname   -0.651479
    2   N2        -0.189780731     0.000016284    -0.080068568     N.4   1  noname    0.731950
    3   C3         0.663984340    -1.225761297    -0.050148810     C.3   1  noname   -0.650899
    4   C4         0.664028667     1.225762745    -0.050201339     C.3   1  noname   -0.650865
    5   N5        -1.163919002     0.000102374     1.024851356    N.ar   1  noname   -0.748992
    6   C6        -0.470525319    -0.000006514     2.164503624     C.1   1  noname    0.603278
    7   N7         0.151826459    -0.000090002     3.185348136     N.1   1  noname   -0.644251
    8   H8        -0.399786717     0.000003236    -2.186994821       H   1  noname    0.206087
    9   H9        -1.663578448    -0.888932394    -1.258481806       H   1  noname    0.237832
   10   H10       -1.663593373     0.888921897    -1.258481369       H   1  noname    0.237835
   11   H11       -0.007644931    -2.082659075    -0.071619877       H   1  noname    0.228392
   12   H12        1.222612694    -1.218628887     0.885979956       H   1  noname    0.228407
   13   H13        1.339214668    -1.227426254    -0.909128655       H   1  noname    0.207965
   14   H14       -0.007586541     2.082663673    -0.071642143       H   1  noname    0.228386
   15   H15        1.222699983     1.218615597     0.885891527       H   1  noname    0.228398
   16   H16        1.339219964     1.227418345    -0.909202123       H   1  noname    0.207955


@<TRIPOS>BOND
    1      1      2    1
    2      2      3    1
    3      2      4    1
    4      2      5    1
    5      5      6    1
    6      6      7    3
    7      1      8    1
    8      1      9    1
    9      1     10    1
   10      3     11    1
   11      3     12    1
   12      3     13    1
   13      4     14    1
   14      4     15    1
   15      4     16    1
#
#	File Created by: Spartan'20 Export
#

@<TRIPOS>MOLECULE
M0322
14 13
SMALL
USER_CHARGES


@<TRIPOS>ATOM
    1   C1        -1.408848685     0.000000065    -0.113295863     C.3   1  noname   -0.622840
    2   N2        -0.000022122    -0.000000242     0.374000521     N.4   1  noname    0.740971
    3   C3         0.704419483     1.220080689    -0.113277947     C.3   1  noname   -0.642765
    4   C4         0.704419592    -1.220080709    -0.113278192     C.3   1  noname   -0.642766
    5   O5        -0.000002224    -0.000000576     1.739213146       O   1  noname   -0.716717
    6   H6        -1.458062593     0.000000614    -1.206461365       H   1  noname    0.186789
    7   H7        -1.876192342     0.888175697     0.307645716       H   1  noname    0.215793
    8   H8        -1.876191290    -0.888176100     0.307645085       H   1  noname    0.215793
    9   H9         0.168928820     2.068905434     0.307682324       H   1  noname    0.220311
   10   H10        0.729037222     1.262712914    -1.206443325       H   1  noname    0.191272
   11   H11        1.707274167     1.180671075     0.307665573       H   1  noname    0.221287
   12   H12        0.729037877    -1.262713058    -1.206443695       H   1  noname    0.191272
   13   H13        0.168928608    -2.068905528     0.307681596       H   1  noname    0.220311
   14   H14        1.707273487    -1.180670275     0.307666425       H   1  noname    0.221287


@<TRIPOS>BOND
    1      1      2    1
    2      2      3    1
    3      2      4    1
    4      2      5    1
    5      1      6    1
    6      1      7    1
    7      1      8    1
    8      3      9    1
    9      3     10    1
   10      3     11    1
   11      4     12    1
   12      4     13    1
   13      4     14    1
#
#	File Created by: Spartan'20 Export
#

@<TRIPOS>MOLECULE
M0323
10 9
SMALL
USER_CHARGES


@<TRIPOS>ATOM
    1   C1        -1.423959607    -0.160950586    -0.152396523     C.3   1  noname   -0.532008
    2   Se2        0.080114488     1.029151251    -0.536003966      Se   1  noname    0.448690
    3   O3         0.078869940     2.145384262     0.683668990     O.2   1  noname   -0.533580
    4   C4         1.407474793    -0.308794276    -0.012956416     C.3   1  noname   -0.521809
    5   H5        -1.375635188    -0.444790241     0.900872836       H   1  noname    0.201518
    6   H6        -1.377714448    -1.041148020    -0.798542050       H   1  noname    0.169319
    7   H7        -2.342910637     0.395869303    -0.341255832       H   1  noname    0.202677
    8   H8         1.333281459    -1.183294164    -0.664320039       H   1  noname    0.165468
    9   H9         2.393371480     0.148451726    -0.108293630       H   1  noname    0.200864
   10   H10        1.227107721    -0.579879254     1.029226631       H   1  noname    0.198862


@<TRIPOS>BOND
    1      1      2    1
    2      2      3    2
    3      2      4    1
    4      1      5    1
    5      1      6    1
    6      1      7    1
    7      4      8    1
    8      4      9    1
    9      4     10    1
#
#	File Created by: Spartan'20 Export
#

@<TRIPOS>MOLECULE
M0324
15 14
SMALL
USER_CHARGES


@<TRIPOS>ATOM
    1   C1        -1.795926693     0.000028227    -0.366815733     C.3   1  noname   -0.907088
    2   Si2       -0.000474818     0.000046387     0.177584225      Si   1  noname    1.236646
    3   C3         0.898022036     1.554508611    -0.367579870     C.3   1  noname   -0.909822
    4   C4         0.898019955    -1.554440459    -0.367491995     C.3   1  noname   -0.910157
    5   C5        -0.000395281    -0.000016615     2.048504830     C.1   1  noname   -0.065703
    6   N6        -0.001245337    -0.000340358     3.234080025     N.1   1  noname   -0.325173
    7   H7        -2.321923216     0.884115787     0.004081541       H   1  noname    0.208267
    8   H8        -1.866897053    -0.000071731    -1.459145848       H   1  noname    0.209221
    9   H9        -2.321916788    -0.883992459     0.004243305       H   1  noname    0.208283
   10   H10        0.933561688     1.614817538    -1.459985655       H   1  noname    0.209870
   11   H11        0.396170753     2.452793395     0.002655709       H   1  noname    0.208992
   12   H12        1.926639507     1.567225544     0.003408870       H   1  noname    0.208772
   13   H13        0.933581154    -1.614857623    -1.459887343       H   1  noname    0.209960
   14   H14        0.396155004    -2.452681658     0.002826184       H   1  noname    0.209086
   15   H15        1.926629088    -1.567134587     0.003521754       H   1  noname    0.208846


@<TRIPOS>BOND
    1      1      2    1
    2      2      3    1
    3      2      4    1
    4      2      5    1
    5      5      6    3
    6      1      7    1
    7      1      8    1
    8      1      9    1
    9      3     10    1
   10      3     11    1
   11      3     12    1
   12      4     13    1
   13      4     14    1
   14      4     15    1
#
#	File Created by: Spartan'20 Export
#

@<TRIPOS>MOLECULE
M0325
28 27
SMALL
USER_CHARGES


@<TRIPOS>ATOM
    1   C1         0.029690499    -1.993113084     1.911636122     C.3   1  noname   -0.984419
    2   Si2       -0.180117192    -1.593186111     0.080290038      Si   1  noname    1.543486
    3   C3        -1.363595219    -2.842810321    -0.685896362     C.3   1  noname   -0.971611
    4   C4         1.507681070    -1.705962579    -0.752235996     C.3   1  noname   -0.933097
    5   N5        -0.864829212     0.000704501    -0.176126179     N.3   1  noname   -1.352427
    6   Si6       -0.131919171     1.592824462    -0.141973706      Si   1  noname    1.550218
    7   C7        -1.523766845     2.846521364     0.068616676     C.3   1  noname   -0.963376
    8   C8         0.803497472     1.981594290    -1.735554958     C.3   1  noname   -1.004574
    9   C9         1.072448266     1.714033896     1.301750852     C.3   1  noname   -0.936719
   10   H10        0.431522481    -3.002661769     2.053605654       H   1  noname    0.197959
   11   H11       -0.928449294    -1.935884156     2.438738683       H   1  noname    0.201990
   12   H12        0.715818448    -1.290702425     2.396088566       H   1  noname    0.213764
   13   H13       -0.996425944    -3.864581019    -0.548311927       H   1  noname    0.203387
   14   H14       -1.481248478    -2.672229584    -1.760010423       H   1  noname    0.201966
   15   H15       -2.356137642    -2.789855581    -0.226393906       H   1  noname    0.204480
   16   H16        1.426521913    -1.534002426    -1.829976023       H   1  noname    0.195552
   17   H17        2.212348331    -0.971261878    -0.348416611       H   1  noname    0.197629
   18   H18        1.951387419    -2.696479868    -0.600188765       H   1  noname    0.187478
   19   H19       -1.859531019     0.000293163    -0.388848377       H   1  noname    0.434162
   20   H20       -2.241823143     2.791698300    -0.756385449       H   1  noname    0.202297
   21   H21       -1.130121765     3.867489255     0.089533609       H   1  noname    0.200560
   22   H22       -2.070192082     2.679589486     1.001743691       H   1  noname    0.199376
   23   H23        1.224942328     2.992312363    -1.710374812       H   1  noname    0.202646
   24   H24        1.628679871     1.279348368    -1.891738854       H   1  noname    0.219546
   25   H25        0.142254834     1.914717247    -2.605981167       H   1  noname    0.206777
   26   H26        1.883438525     0.983163104     1.220854473       H   1  noname    0.198971
   27   H27        0.562436067     1.542288955     2.254281997       H   1  noname    0.195798
   28   H28        1.535489483     2.706152047     1.341273155       H   1  noname    0.188181


@<TRIPOS>BOND
    1      1      2    1
    2      2      3    1
    3      2      4    1
    4      2      5    1
    5      5      6    1
    6      6      7    1
    7      6      8    1
    8      6      9    1
    9      1     10    1
   10      1     11    1
   11      1     12    1
   12      3     13    1
   13      3     14    1
   14      3     15    1
   15      4     16    1
   16      4     17    1
   17      4     18    1
   18      5     19    1
   19      7     20    1
   20      7     21    1
   21      7     22    1
   22      8     23    1
   23      8     24    1
   24      8     25    1
   25      9     26    1
   26      9     27    1
   27      9     28    1
#
#	File Created by: Spartan'20 Export
#

@<TRIPOS>MOLECULE
M0326
27 26
SMALL
USER_CHARGES


@<TRIPOS>ATOM
    1   C1         1.946040693     1.515828141    -0.909502185     C.3   1  noname   -0.939128
    2   Si2        1.599126920     0.000235061     0.147933478      Si   1  noname    1.449916
    3   C3         1.966406849    -1.557891865    -0.838030338     C.3   1  noname   -0.938930
    4   C4         2.642058804     0.043828443     1.708751257     C.3   1  noname   -0.955482
    5   O5         0.000046280    -0.000312209     0.631578159     O.3   1  noname   -0.868578
    6   Si6       -1.599029442    -0.000343845     0.147923631      Si   1  noname    1.449894
    7   C7        -1.965986228     1.557888817    -0.838051858     C.3   1  noname   -0.938817
    8   C8        -2.642016183    -0.043799475     1.708689944     C.3   1  noname   -0.955520
    9   C9        -1.946442346    -1.515771594    -0.909576754     C.3   1  noname   -0.939019
   10   H10        3.004095711     1.568295704    -1.188383896       H   1  noname    0.197774
   11   H11        1.361143910     1.500316554    -1.834728292       H   1  noname    0.195513
   12   H12        1.696113535     2.436711864    -0.373945380       H   1  noname    0.204895
   13   H13        1.733414580    -2.456363084    -0.258328705       H   1  noname    0.203866
   14   H14        3.023895247    -1.606978929    -1.119659607       H   1  noname    0.197624
   15   H15        1.376945407    -1.595446206    -1.759702056       H   1  noname    0.197170
   16   H16        3.712058902     0.042570463     1.473011327       H   1  noname    0.199437
   17   H17        2.427937406     0.941078389     2.296119709       H   1  noname    0.210645
   18   H18        2.436074928    -0.824702762     2.341046863       H   1  noname    0.210986
   19   H19       -3.023624783     1.607295191    -1.119246024       H   1  noname    0.197594
   20   H20       -1.732424988     2.456364019    -0.258511448       H   1  noname    0.203824
   21   H21       -1.376866987     1.595122369    -1.760007529       H   1  noname    0.197147
   22   H22       -2.427787281    -0.940950557     2.296173741       H   1  noname    0.210660
   23   H23       -3.711989701    -0.042771749     1.472863419       H   1  noname    0.199438
   24   H24       -2.436248016     0.824827900     2.340901856       H   1  noname    0.210995
   25   H25       -1.361576166    -1.500446903    -1.834827464       H   1  noname    0.195479
   26   H26       -3.004526334    -1.567821389    -1.188425611       H   1  noname    0.197744
   27   H27       -1.696840719    -2.436762347    -0.374066235       H   1  noname    0.204874


@<TRIPOS>BOND
    1      1      2    1
    2      2      3    1
    3      2      4    1
    4      2      5    1
    5      5      6    1
    6      6      7    1
    7      6      8    1
    8      6      9    1
    9      1     10    1
   10      1     11    1
   11      1     12    1
   12      3     13    1
   13      3     14    1
   14      3     15    1
   15      4     16    1
   16      4     17    1
   17      4     18    1
   18      7     19    1
   19      7     20    1
   20      7     21    1
   21      8     22    1
   22      8     23    1
   23      8     24    1
   24      9     25    1
   25      9     26    1
   26      9     27    1
#
#	File Created by: Spartan'20 Export
#

@<TRIPOS>MOLECULE
M0327
30 30
SMALL
USER_CHARGES


@<TRIPOS>ATOM
    1   C1        -2.917970893    -0.000057498     0.088295575     C.3   1  noname   -0.456329
    2   C2        -1.406799491    -0.000047202     0.022892836     C.2   1  noname   -0.014977
    3   C3        -0.703514521    -1.218318446    -0.022415759     C.2   1  noname    0.051396
    4   C4         0.703365925    -1.218290055     0.022314437     C.2   1  noname    0.050490
    5   C5         1.406702028     0.000008036    -0.022742758     C.2   1  noname   -0.013121
    6   C6         0.703428550     1.218265818     0.022250331     C.2   1  noname    0.050429
    7   C7        -0.703457739     1.218248217    -0.022324171     C.2   1  noname    0.050993
    8   C8        -1.459393113     2.526859277    -0.087219379     C.3   1  noname   -0.427100
    9   C9         1.459474935     2.526800899     0.086831953     C.3   1  noname   -0.429328
   10   C10        2.917877957    -0.000022654    -0.087513446     C.3   1  noname   -0.457729
   11   C11        1.459567438    -2.526743963     0.087211307     C.3   1  noname   -0.429417
   12   C12       -1.459571327    -2.526837771    -0.087605668     C.3   1  noname   -0.428809
   13   H13       -3.289300462    -0.876744381     0.622535225       H   1  noname    0.143140
   14   H14       -3.289194739     0.876072846     0.623476712       H   1  noname    0.142856
   15   H15       -3.380324878     0.000467390    -0.907186165       H   1  noname    0.143499
   16   H16       -1.690567117     2.926839831     0.908415678       H   1  noname    0.133309
   17   H17       -0.886339195     3.286837355    -0.621826045       H   1  noname    0.130527
   18   H18       -2.404114225     2.410094280    -0.621799556       H   1  noname    0.133507
   19   H19        0.885530557     3.287696409     0.619178895       H   1  noname    0.131176
   20   H20        1.692782793     2.925276216    -0.908936665       H   1  noname    0.133537
   21   H21        2.403144211     2.410529850     0.623460602       H   1  noname    0.134127
   22   H22        3.289484929    -0.876894712    -0.621272682       H   1  noname    0.143364
   23   H23        3.289322726     0.875988847    -0.622724288       H   1  noname    0.143407
   24   H24        3.379726593     0.000786269     0.908197612       H   1  noname    0.143675
   25   H25        0.885075235    -3.288179897     0.618207168       H   1  noname    0.131226
   26   H26        2.402287118    -2.410480405     0.625423664       H   1  noname    0.134157
   27   H27        1.694530146    -2.924531408    -0.908438928       H   1  noname    0.133551
   28   H28       -0.886124511    -3.287093677    -0.621386515       H   1  noname    0.131055
   29   H29       -2.403730687    -2.410093115    -0.623234972       H   1  noname    0.133980
   30   H30       -1.691898243    -2.926436356     0.907935003       H   1  noname    0.133408


@<TRIPOS>BOND
    1      1      2    1
    2      2      3    2
    3      3      4    1
    4      4      5    2
    5      5      6    1
    6      6      7    2
    7      7      8    1
    8      6      9    1
    9      5     10    1
   10      4     11    1
   11      3     12    1
   12      7      2    1
   13      1     13    1
   14      1     14    1
   15      1     15    1
   16      8     16    1
   17      8     17    1
   18      8     18    1
   19      9     19    1
   20      9     20    1
   21      9     21    1
   22     10     22    1
   23     10     23    1
   24     10     24    1
   25     11     25    1
   26     11     26    1
   27     11     27    1
   28     12     28    1
   29     12     29    1
   30     12     30    1
#
#	File Created by: Spartan'20 Export
#

@<TRIPOS>MOLECULE
M0328
17 17
SMALL
USER_CHARGES


@<TRIPOS>ATOM
    1   C1        -2.347697580     0.000008372    -1.072213636     C.3   1  noname   -0.764277
    2   C2        -1.182055429     0.000001126    -0.141134960     C.2   1  noname    0.665326
    3   C3        -1.220559162    -0.000008930     1.211667924     C.2   1  noname   -0.802333
    4   C4        -0.000026529    -0.000004123     2.013875071     C.2   1  noname    0.990749
    5   O5        -0.000053508    -0.000005361     3.254588626     O.2   1  noname   -0.646733
    6   C6         1.220564925    -0.000003407     1.211741235     C.2   1  noname   -0.802302
    7   C7         1.182140748     0.000001556    -0.141054082     C.2   1  noname    0.665294
    8   O8         0.000057268     0.000004444    -0.837536732     O.3   1  noname   -0.397657
    9   C9         2.347719850    -0.000001123    -1.072219454     C.3   1  noname   -0.764278
   10   H10       -3.280598745     0.000003586    -0.506575501       H   1  noname    0.223911
   11   H11       -2.320868099    -0.883851833    -1.715578448       H   1  noname    0.221046
   12   H12       -2.320867453     0.883881149    -1.715561824       H   1  noname    0.221045
   13   H13       -2.176941058    -0.000018561     1.723867852       H   1  noname    0.262102
   14   H14        2.176936065     0.000004002     1.723997194       H   1  noname    0.262098
   15   H15        3.280723734     0.000046011    -0.506742976       H   1  noname    0.223915
   16   H16        2.320784840    -0.883894611    -1.715521422       H   1  noname    0.221048
   17   H17        2.320740131     0.883837703    -1.715598865       H   1  noname    0.221047


@<TRIPOS>BOND
    1      1      2    1
    2      2      3    2
    3      3      4    1
    4      4      5    2
    5      4      6    1
    6      6      7    2
    7      7      8    1
    8      7      9    1
    9      8      2    1
   10      1     10    1
   11      1     11    1
   12      1     12    1
   13      3     13    1
   14      6     14    1
   15      9     15    1
   16      9     16    1
   17      9     17    1
#
#	File Created by: Spartan'20 Export
#

@<TRIPOS>MOLECULE
M0329
17 17
SMALL
USER_CHARGES


@<TRIPOS>ATOM
    1   C1        -2.532875840    -0.065237539     0.687479262     C.3   1  noname   -0.798590
    2   C2        -1.211840952     0.001121365    -0.029788452     C.2   1  noname    0.263427
    3   C3         0.000014578    -0.066460152     0.662889301     C.2   1  noname   -0.350743
    4   C4         1.211852075     0.001100513    -0.029813379     C.2   1  noname    0.263392
    5   C5         1.144957269     0.136059340    -1.421435268     C.2   1  noname    0.101353
    6   N6        -0.000018324     0.203297291    -2.121029211     N.2   1  noname   -0.524045
    7   C7        -1.144981824     0.136152302    -1.421401781     C.2   1  noname    0.101366
    8   C8         2.532886798    -0.064875886     0.687496917     C.3   1  noname   -0.798406
    9   H9        -2.637310678     0.760907994     1.398249610       H   1  noname    0.219987
   10   H10       -3.364352655    -0.008177358    -0.020409895       H   1  noname    0.208008
   11   H11       -2.630183475    -0.999428398     1.248766995       H   1  noname    0.220628
   12   H12        0.000030455    -0.173179474     1.748699995       H   1  noname    0.215168
   13   H13        2.062130137     0.191874960    -2.008261653       H   1  noname    0.114984
   14   H14       -2.062165114     0.192134071    -2.008182793       H   1  noname    0.114983
   15   H15        2.629429952    -0.997975099     1.250728421       H   1  noname    0.220583
   16   H16        3.364409804    -0.009948540    -0.020551779       H   1  noname    0.207964
   17   H17        2.638017794     0.762634609     1.396563708       H   1  noname    0.219940


@<TRIPOS>BOND
    1      1      2    1
    2      2      3    2
    3      3      4    1
    4      4      5    2
    5      5      6    1
    6      6      7    2
    7      4      8    1
    8      7      2    1
    9      1      9    1
   10      1     10    1
   11      1     11    1
   12      3     12    1
   13      5     13    1
   14      7     14    1
   15      8     15    1
   16      8     16    1
   17      8     17    1
#
#	File Created by: Spartan'20 Export
#

@<TRIPOS>MOLECULE
M0330
20 20
SMALL
USER_CHARGES


@<TRIPOS>ATOM
    1   C1        -0.000186921     0.006890600     2.829032053     C.3   1  noname   -0.715404
    2   C2         0.000134212    -0.019945341     1.324024545     C.2   1  noname    0.761570
    3   C3        -1.190894155    -0.012826843     0.595890788     C.2   1  noname   -0.865149
    4   C4        -1.157313870    -0.002068450    -0.801656349     C.2   1  noname    0.840344
    5   N5         0.000139114     0.003801634    -1.493992969     N.2   1  noname   -0.762755
    6   C6         1.157551670    -0.002225093    -0.801729924     C.2   1  noname    0.839674
    7   C7         1.191175518    -0.012931689     0.595850306     C.2   1  noname   -0.864253
    8   C8         2.427255854     0.002662318    -1.611231219     C.3   1  noname   -0.767082
    9   C9        -2.427149196     0.002893341    -1.610950702     C.3   1  noname   -0.765342
   10   H10       -0.886063600    -0.492725098     3.230559162       H   1  noname    0.187865
   11   H11       -0.000939862     1.036665664     3.201919369       H   1  noname    0.193941
   12   H12        0.885836206    -0.491750451     3.231120464       H   1  noname    0.187849
   13   H13       -2.148717389    -0.021730858     1.114291813       H   1  noname    0.266720
   14   H14        2.149053068    -0.021884690     1.114172684       H   1  noname    0.266576
   15   H15        3.043659393    -0.874027892    -1.387446245       H   1  noname    0.193321
   16   H16        2.174235732    -0.006042489    -2.672342747       H   1  noname    0.209134
   17   H17        3.029036762     0.892309385    -1.399401132       H   1  noname    0.196034
   18   H18       -3.043098448    -0.874235895    -1.387628164       H   1  noname    0.192860
   19   H19       -2.174494463    -0.004973909    -2.672197637       H   1  noname    0.208635
   20   H20       -3.029219625     0.892145756    -1.398284097       H   1  noname    0.195462


@<TRIPOS>BOND
    1      1      2    1
    2      2      3    2
    3      3      4    1
    4      4      5    2
    5      5      6    1
    6      6      7    2
    7      6      8    1
    8      4      9    1
    9      7      2    1
   10      1     10    1
   11      1     11    1
   12      1     12    1
   13      3     13    1
   14      7     14    1
   15      8     15    1
   16      8     16    1
   17      8     17    1
   18      9     18    1
   19      9     19    1
   20      9     20    1
#
#	File Created by: Spartan'20 Export
#

@<TRIPOS>MOLECULE
M0331
20 20
SMALL
USER_CHARGES


@<TRIPOS>ATOM
    1   C1        -3.335780968    -0.460725410    -0.167834139     C.3   1  noname   -0.808274
    2   C2        -1.864536690    -0.171599740    -0.027439102     C.2   1  noname    0.500802
    3   C3        -1.418775623     1.054181947     0.488852616     C.2   1  noname   -0.357990
    4   C4        -0.061664116     1.341343088     0.587851309     C.2   1  noname   -0.060833
    5   C5         0.892732937     0.404836503     0.165834797     C.2   1  noname   -0.148312
    6   C6         0.458126661    -0.823047329    -0.352092533     C.2   1  noname   -0.086084
    7   C7        -0.905116702    -1.100896242    -0.447085609     C.2   1  noname   -0.372750
    8   C8         2.338751777     0.760064639     0.295532679     C.2   1  noname    0.710010
    9   O9         2.677430511     1.848802757     0.763809674     O.2   1  noname   -0.555828
   10   C10        3.380195120    -0.240013426    -0.159076160     C.3   1  noname   -0.683989
   11   H11       -3.909591207     0.028270585     0.624382959       H   1  noname    0.213432
   12   H12       -3.533186468    -1.535352474    -0.118146357       H   1  noname    0.212766
   13   H13       -3.718330836    -0.096366353    -1.127665788       H   1  noname    0.217750
   14   H14       -2.148913068     1.789239400     0.824229614       H   1  noname    0.180338
   15   H15        0.285575208     2.288370689     0.991905249       H   1  noname    0.150630
   16   H16        1.174729599    -1.570396618    -0.682790678       H   1  noname    0.143880
   17   H17       -1.229294868    -2.060172241    -0.847584030       H   1  noname    0.181510
   18   H18        3.293412239    -1.175209799     0.402425266       H   1  noname    0.181518
   19   H19        4.367095240     0.193983979     0.005758285       H   1  noname    0.199074
   20   H20        3.257141254    -0.475313954    -1.220868053       H   1  noname    0.182350


@<TRIPOS>BOND
    1      1      2    1
    2      2      3    2
    3      3      4    1
    4      4      5    2
    5      5      6    1
    6      6      7    2
    7      5      8    1
    8      8      9    2
    9      8     10    1
   10      7      2    1
   11      1     11    1
   12      1     12    1
   13      1     13    1
   14      3     14    1
   15      4     15    1
   16      6     16    1
   17      7     17    1
   18     10     18    1
   19     10     19    1
   20     10     20    1
#
#	File Created by: Spartan'20 Export
#

@<TRIPOS>MOLECULE
M0332
17 17
SMALL
USER_CHARGES


@<TRIPOS>ATOM
    1   C1        -0.001295559     0.000011458     2.716374992     C.3   1  noname   -0.771845
    2   C2        -0.048851484    -0.000032760     1.210379848     C.2   1  noname    0.407629
    3   C3        -0.043388665     1.197688005     0.485168626     C.2   1  noname   -0.311343
    4   C4        -0.051412542     1.204055441    -0.908384619     C.2   1  noname   -0.308042
    5   C5        -0.036322171    -0.000004284    -1.625542544     C.2   1  noname    0.440843
    6   C6        -0.051605633    -1.204073563    -0.908396259     C.2   1  noname   -0.308066
    7   C7        -0.043571425    -1.197732079     0.485163997     C.2   1  noname   -0.311306
    8   N8        -0.119149711     0.000041423    -3.031348088     N.3   1  noname   -0.905217
    9   H9        -0.498810825     0.884467266     3.125245358       H   1  noname    0.201442
   10   H10       -0.497788406    -0.884996803     3.125249079       H   1  noname    0.201450
   11   H11        1.030591425     0.000620137     3.085216547       H   1  noname    0.194656
   12   H12       -0.051129812     2.147508150     1.018277776       H   1  noname    0.187319
   13   H13       -0.058325969     2.150386637    -1.447528382       H   1  noname    0.182006
   14   H14       -0.058667127    -2.150408237    -1.447543073       H   1  noname    0.182007
   15   H15       -0.051451059    -2.147562251     1.018252530       H   1  noname    0.187294
   16   H16        0.290506421    -0.829325014    -3.450331299       H   1  noname    0.365586
   17   H17        0.290672543     0.829356473    -3.450254487       H   1  noname    0.365586


@<TRIPOS>BOND
    1      1      2    1
    2      2      3    2
    3      3      4    1
    4      4      5    2
    5      5      6    1
    6      6      7    2
    7      5      8    1
    8      7      2    1
    9      1      9    1
   10      1     10    1
   11      1     11    1
   12      3     12    1
   13      4     13    1
   14      6     14    1
   15      7     15    1
   16      8     16    1
   17      8     17    1
#
#	File Created by: Spartan'20 Export
#

@<TRIPOS>MOLECULE
M0333
26 26
SMALL
USER_CHARGES


@<TRIPOS>ATOM
    1   C1         4.702179324     0.389872157    -0.405704502     C.3   1  noname   -0.787734
    2   C2         3.218184410     0.128406894    -0.406948055     C.2   1  noname    0.388136
    3   C3         2.306503673     1.160428333    -0.657495389     C.2   1  noname   -0.302188
    4   C4         0.929904714     0.933758940    -0.630030217     C.2   1  noname   -0.301586
    5   C5         0.426596518    -0.341765536    -0.326540413     C.2   1  noname    0.420276
    6   C6         1.335109329    -1.385879316    -0.102596714     C.2   1  noname   -0.291839
    7   C7         2.706658234    -1.145846401    -0.124770122     C.2   1  noname   -0.285759
    8   N8        -0.951752186    -0.637528951    -0.305848027     N.2   1  noname   -0.601031
    9   C9        -1.707319349     0.204574485     0.320787163     C.2   1  noname    0.384653
   10   N10       -3.071294964     0.138489625     0.283646503   N.pl3   1  noname   -0.064408
   11   C11       -3.830056561     0.740101776     1.366040176     C.3   1  noname   -0.518823
   12   C12       -3.681614181    -1.003341334    -0.374834570     C.3   1  noname   -0.539808
   13   H13        5.036659390     0.782475909     0.561319780       H   1  noname    0.201326
   14   H14        5.262970652    -0.528517307    -0.602981282       H   1  noname    0.207563
   15   H15        4.974401144     1.122658213    -1.171238328       H   1  noname    0.207151
   16   H16        2.677755526     2.154769417    -0.903573665       H   1  noname    0.183539
   17   H17        0.237733298     1.738070709    -0.875992454       H   1  noname    0.153625
   18   H18        0.942145096    -2.378093733     0.104882703       H   1  noname    0.178295
   19   H19        3.395652316    -1.969779875     0.057144768       H   1  noname    0.175399
   20   H20       -1.313062570     1.050828314     0.901548133       H   1  noname    0.071328
   21   H21       -4.800781321     1.075547006     0.989593225       H   1  noname    0.185155
   22   H22       -3.289956707     1.607487768     1.749410755       H   1  noname    0.168502
   23   H23       -4.000332724     0.037161706     2.193461216       H   1  noname    0.188870
   24   H24       -3.671569957    -1.895183893     0.266378363       H   1  noname    0.189071
   25   H25       -4.714999539    -0.752453540    -0.623913170       H   1  noname    0.197328
   26   H26       -3.119713566    -1.226241363    -1.281745878       H   1  noname    0.192959


@<TRIPOS>BOND
    1      1      2    1
    2      2      3    2
    3      3      4    1
    4      4      5    2
    5      5      6    1
    6      6      7    2
    7      5      8    1
    8      8      9    2
    9      9     10    1
   10     10     11    1
   11     10     12    1
   12      7      2    1
   13      1     13    1
   14      1     14    1
   15      1     15    1
   16      3     16    1
   17      4     17    1
   18      6     18    1
   19      7     19    1
   20      9     20    1
   21     11     21    1
   22     11     22    1
   23     11     23    1
   24     12     24    1
   25     12     25    1
   26     12     26    1
#
#	File Created by: Spartan'20 Export
#

@<TRIPOS>MOLECULE
M0334
18 18
SMALL
USER_CHARGES


@<TRIPOS>ATOM
    1   C1         2.525333059     0.006348598    -0.884856197     C.3   1  noname   -0.737221
    2   C2         1.223692407    -0.021360332    -0.125309517     C.2   1  noname    0.483111
    3   C3         1.209545520    -0.000232718     1.274440054     C.2   1  noname   -0.397568
    4   C4         0.000020475     0.005704242     1.970187331     C.2   1  noname   -0.038798
    5   C5        -1.209533003    -0.000218818     1.274442654     C.2   1  noname   -0.397645
    6   C6        -1.223721595    -0.021342260    -0.125297262     C.2   1  noname    0.483264
    7   C7        -0.000034507    -0.026320280    -0.804840674     C.2   1  noname   -0.543586
    8   C8        -2.525338769     0.006420772    -0.884860250     C.3   1  noname   -0.737465
    9   H9         2.850258218     1.035085244    -1.076634765       H   1  noname    0.199652
   10   H10        2.427969420    -0.495791887    -1.851842008       H   1  noname    0.192089
   11   H11        3.320225745    -0.492042036    -0.322130982       H   1  noname    0.192233
   12   H12        2.150606579    -0.002567253     1.822260379       H   1  noname    0.183114
   13   H13        0.000041746     0.011885240     3.058074367       H   1  noname    0.137293
   14   H14       -2.150582763    -0.002543149     1.822285684       H   1  noname    0.183142
   15   H15       -0.000049489    -0.050540061    -1.895229717       H   1  noname    0.214254
   16   H16       -2.850566964     1.035154075    -1.076025402       H   1  noname    0.199719
   17   H17       -2.427777196    -0.495083248    -1.852151321       H   1  noname    0.192130
   18   H18       -3.320088884    -0.492556128    -0.322512372       H   1  noname    0.192281


@<TRIPOS>BOND
    1      1      2    1
    2      2      3    2
    3      3      4    1
    4      4      5    2
    5      5      6    1
    6      6      7    2
    7      6      8    1
    8      7      2    1
    9      1      9    1
   10      1     10    1
   11      1     11    1
   12      3     12    1
   13      4     13    1
   14      5     14    1
   15      7     15    1
   16      8     16    1
   17      8     17    1
   18      8     18    1
#
#	File Created by: Spartan'20 Export
#

@<TRIPOS>MOLECULE
M0335
20 20
SMALL
USER_CHARGES


@<TRIPOS>ATOM
    1   C1        -2.468184366    -1.400366291     0.028634798     C.3   1  noname   -0.789785
    2   C2        -1.483030797    -0.259810381     0.022314340     C.2   1  noname    0.422534
    3   C3        -1.923525101     1.068538818    -0.027969695     C.2   1  noname   -0.288947
    4   C4        -1.009211679     2.124218851    -0.070278976     C.2   1  noname   -0.106890
    5   C5         0.358683348     1.868585383    -0.065097399     C.2   1  noname   -0.162389
    6   C6         0.818835008     0.544980720    -0.015716496     C.2   1  noname   -0.057684
    7   C7        -0.105490293    -0.507227073     0.027540726     C.2   1  noname   -0.338379
    8   C8         2.296526971     0.312553024    -0.006845429     C.2   1  noname    0.718902
    9   O9         3.080245052     1.263373664    -0.042290026     O.2   1  noname   -0.556302
   10   C10        2.813523819    -1.109168571     0.046111420     C.3   1  noname   -0.693779
   11   H11       -2.711367239    -1.716154668    -0.991220924       H   1  noname    0.212279
   12   H12       -2.062728547    -2.266986696     0.557757059       H   1  noname    0.206709
   13   H13       -3.401292098    -1.109893636     0.518382281       H   1  noname    0.209144
   14   H14       -2.991754828     1.278978853    -0.029300310       H   1  noname    0.174608
   15   H15       -1.369354102     3.149629181    -0.104147780       H   1  noname    0.140787
   16   H16        1.086753320     2.673979879    -0.094652519       H   1  noname    0.156367
   17   H17        0.239249602    -1.538119080     0.069889498       H   1  noname    0.182476
   18   H18        3.903240135    -1.077121447     0.041391564       H   1  noname    0.200729
   19   H19        2.461838330    -1.683848120    -0.815604573       H   1  noname    0.186071
   20   H20        2.467043464    -1.616142412     0.951102440       H   1  noname    0.183551


@<TRIPOS>BOND
    1      1      2    1
    2      2      3    2
    3      3      4    1
    4      4      5    2
    5      5      6    1
    6      6      7    2
    7      6      8    1
    8      8      9    2
    9      8     10    1
   10      7      2    1
   11      1     11    1
   12      1     12    1
   13      1     13    1
   14      3     14    1
   15      4     15    1
   16      5     16    1
   17      7     17    1
   18     10     18    1
   19     10     19    1
   20     10     20    1
#
#	File Created by: Spartan'20 Export
#

@<TRIPOS>MOLECULE
M0336
16 16
SMALL
USER_CHARGES


@<TRIPOS>ATOM
    1   C1         2.417083621    -0.101413991    -0.123139144     C.3   1  noname   -0.757511
    2   C2         0.923560535     0.041238651     0.023109012     C.2   1  noname    0.526844
    3   C3         0.375269186     0.796238283     1.069251315     C.2   1  noname   -0.471175
    4   C4        -1.007155760     0.891760344     1.219845048     C.2   1  noname    0.055592
    5   C5        -1.864868321     0.237128614     0.334212064     C.2   1  noname   -0.522729
    6   C6        -1.320370560    -0.515804210    -0.708103654     C.2   1  noname    0.575890
    7   C7         0.064097102    -0.613157901    -0.861981349     C.2   1  noname   -0.563444
    8   O8        -2.093972699    -1.188582157    -1.626389418     O.3   1  noname   -0.643915
    9   H9         2.932824597     0.789668440     0.243692061       H   1  noname    0.201339
   10   H10        2.789784110    -0.959557552     0.445738201       H   1  noname    0.204433
   11   H11        2.697995317    -0.249274565    -1.169236732       H   1  noname    0.198088
   12   H12        1.033367279     1.313612576     1.763911733       H   1  noname    0.192201
   13   H13       -1.426668549     1.483010089     2.030216395       H   1  noname    0.130979
   14   H14       -2.944719998     0.316625105     0.451426831       H   1  noname    0.194502
   15   H15        0.453278677    -1.205377883    -1.687009194       H   1  noname    0.242468
   16   H16       -3.029504537    -1.036113843    -1.405543170       H   1  noname    0.436435


@<TRIPOS>BOND
    1      1      2    1
    2      2      3    2
    3      3      4    1
    4      4      5    2
    5      5      6    1
    6      6      7    2
    7      6      8    1
    8      7      2    1
    9      1      9    1
   10      1     10    1
   11      1     11    1
   12      3     12    1
   13      4     13    1
   14      5     14    1
   15      7     15    1
   16      8     16    1
#
#	File Created by: Spartan'20 Export
#

@<TRIPOS>MOLECULE
M0337
17 17
SMALL
USER_CHARGES


@<TRIPOS>ATOM
    1   C1         2.427533445     0.000011856    -1.019339766     C.3   1  noname   -0.824543
    2   C2         1.161142844     0.000020791    -0.205076333     C.2   1  noname    0.847047
    3   C3         1.198602160    -0.000034531     1.193705597     C.2   1  noname   -0.681229
    4   C4        -0.000059667    -0.000020403     1.902339876     C.2   1  noname    0.231860
    5   C5        -1.198621829    -0.000004145     1.193591199     C.2   1  noname   -0.681226
    6   C6        -1.161008112     0.000031980    -0.205184819     C.2   1  noname    0.847125
    7   N7         0.000094151     0.000039585    -0.891781423     N.2   1  noname   -0.759289
    8   C8        -2.427471003     0.000005930    -1.019295387     C.3   1  noname   -0.824630
    9   H9         3.036471329     0.883177925    -0.802712258       H   1  noname    0.205073
   10   H10        2.172003542    -0.000100302    -2.079528856       H   1  noname    0.223956
   11   H11        3.036586633    -0.882997814    -0.802505093       H   1  noname    0.205086
   12   H12        2.152809405    -0.000097953     1.715340093       H   1  noname    0.232229
   13   H13       -0.000128074    -0.000049956     2.989771685       H   1  noname    0.112150
   14   H14       -2.152878620    -0.000029279     1.715099171       H   1  noname    0.232231
   15   H15       -3.036324248     0.883167660    -0.802474467       H   1  noname    0.205091
   16   H16       -3.036380439    -0.883049427    -0.802311241       H   1  noname    0.205107
   17   H17       -2.172371519    -0.000071917    -2.079637977       H   1  noname    0.223964


@<TRIPOS>BOND
    1      1      2    1
    2      2      3    2
    3      3      4    1
    4      4      5    2
    5      5      6    1
    6      6      7    2
    7      6      8    1
    8      7      2    1
    9      1      9    1
   10      1     10    1
   11      1     11    1
   12      3     12    1
   13      4     13    1
   14      5     14    1
   15      8     15    1
   16      8     16    1
   17      8     17    1
#
#	File Created by: Spartan'20 Export
#

@<TRIPOS>MOLECULE
M0338
15 15
SMALL
USER_CHARGES


@<TRIPOS>ATOM
    1   C1        -0.000046791     0.009615831     2.229041473     C.3   1  noname   -0.818921
    2   C2         0.000145522    -0.019308586     0.722022153     C.2   1  noname    0.484571
    3   C3         1.202869819    -0.012600643     0.004429464     C.2   1  noname   -0.355701
    4   C4         1.206257599    -0.000000392    -1.391377750     C.2   1  noname   -0.074855
    5   C5         0.000022335     0.006695309    -2.094425399     C.2   1  noname   -0.201343
    6   C6        -1.206221791    -0.000108954    -1.391205532     C.2   1  noname   -0.074921
    7   C7        -1.202662338    -0.012741419     0.004582961     C.2   1  noname   -0.355606
    8   H8        -0.884716666    -0.490735681     2.631171288       H   1  noname    0.210525
    9   H9         0.883854979    -0.491488000     2.631496307       H   1  noname    0.210593
   10   H10        0.000239160     1.037903814     2.605083845       H   1  noname    0.215251
   11   H11        2.148046764    -0.020837402     0.544679398       H   1  noname    0.176513
   12   H12        2.150993412     0.000668468    -1.929695746       H   1  noname    0.132481
   13   H13       -0.000021365     0.013594056    -3.181386372       H   1  noname    0.142435
   14   H14       -2.151021536     0.000461599    -1.929418655       H   1  noname    0.132493
   15   H15       -2.147739103    -0.021118001     0.545002565       H   1  noname    0.176484


@<TRIPOS>BOND
    1      1      2    1
    2      2      3    2
    3      3      4    1
    4      4      5    2
    5      5      6    1
    6      6      7    2
    7      7      2    1
    8      1      8    1
    9      1      9    1
   10      1     10    1
   11      3     11    1
   12      4     12    1
   13      5     13    1
   14      6     14    1
   15      7     15    1
#
#	File Created by: Spartan'20 Export
#

@<TRIPOS>MOLECULE
M0339
26 26
SMALL
USER_CHARGES


@<TRIPOS>ATOM
    1   C1        -1.540769362     0.427027449     2.180865331     C.3   1  noname   -0.716235
    2   C2        -1.895151748     0.598349801     0.729305696     C.2   1  noname    0.278450
    3   C3        -3.213877626     0.794939277     0.311151903     C.2   1  noname   -0.282256
    4   C4        -3.536496997     0.946316350    -1.040377965     C.2   1  noname   -0.170573
    5   C5        -2.525958669     0.895801749    -2.000004234     C.2   1  noname   -0.158440
    6   C6        -1.202312866     0.695314665    -1.604377574     C.2   1  noname   -0.260362
    7   C7        -0.881830275     0.523547749    -0.249229982     C.2   1  noname    0.191476
    8   N8         0.446812578     0.355970494     0.191370245     N.2   1  noname   -0.508769
    9   C9         1.152713681    -0.527509288    -0.437210608     C.2   1  noname    0.369794
   10   N10        2.493654747    -0.678299469    -0.235758115   N.pl3   1  noname   -0.056672
   11   C11        3.130034690     0.109480914     0.805887907     C.3   1  noname   -0.516969
   12   C12        3.129970846    -1.934581458    -0.585578821     C.3   1  noname   -0.499574
   13   H13       -2.417126552     0.590180154     2.815097923       H   1  noname    0.188345
   14   H14       -0.755060614     1.130108181     2.471472155       H   1  noname    0.196080
   15   H15       -1.154075190    -0.578666739     2.378160901       H   1  noname    0.191113
   16   H16       -4.002384301     0.843237368     1.060997863       H   1  noname    0.169789
   17   H17       -4.569391305     1.108693145    -1.338964912       H   1  noname    0.146403
   18   H18       -2.761486835     1.032425986    -3.053094400       H   1  noname    0.147997
   19   H19       -0.400515255     0.702909635    -2.340020157       H   1  noname    0.144964
   20   H20        0.733787765    -1.198018910    -1.200281458       H   1  noname    0.072076
   21   H21        3.004829749    -0.347187407     1.796511836       H   1  noname    0.181055
   22   H22        4.196541935     0.194761603     0.580990173       H   1  noname    0.191367
   23   H23        2.671350076     1.097514147     0.822519727       H   1  noname    0.177157
   24   H24        2.577939026    -2.407266694    -1.401194282       H   1  noname    0.162719
   25   H25        4.152912307    -1.745151992    -0.922538277       H   1  noname    0.179086
   26   H26        3.165890195    -2.629896709     0.264299127       H   1  noname    0.181980


@<TRIPOS>BOND
    1      1      2    1
    2      2      3    2
    3      3      4    1
    4      4      5    2
    5      5      6    1
    6      6      7    2
    7      7      8    1
    8      8      9    2
    9      9     10    1
   10     10     11    1
   11     10     12    1
   12      7      2    1
   13      1     13    1
   14      1     14    1
   15      1     15    1
   16      3     16    1
   17      4     17    1
   18      5     18    1
   19      6     19    1
   20      9     20    1
   21     11     21    1
   22     11     22    1
   23     11     23    1
   24     12     24    1
   25     12     25    1
   26     12     26    1
#
#	File Created by: Spartan'20 Export
#

@<TRIPOS>MOLECULE
M0340
14 14
SMALL
USER_CHARGES


@<TRIPOS>ATOM
    1   C1        -0.195184307     0.000020901     2.222323640     C.3   1  noname   -0.867255
    2   C2        -0.145378090    -0.000036109     0.718047643     C.2   1  noname    0.927786
    3   C3         1.078484095    -0.000169659     0.034100670     C.2   1  noname   -0.684934
    4   C4         1.086203036    -0.000109554    -1.357784078     C.2   1  noname    0.238780
    5   C5        -0.135081256     0.000054771    -2.032032577     C.2   1  noname   -0.520402
    6   C6        -1.305895658     0.000143202    -1.275965123     C.2   1  noname    0.368296
    7   N7        -1.328141436     0.000106500     0.070280195     N.2   1  noname   -0.712313
    8   H8        -1.236676366    -0.000665955     2.545864681       H   1  noname    0.229043
    9   H9         0.303407388    -0.882987323     2.633795069       H   1  noname    0.210170
   10   H10        0.302110465     0.883840561     2.633658808       H   1  noname    0.210203
   11   H11        2.012126910    -0.000324119     0.591854211       H   1  noname    0.229289
   12   H12        2.025078067    -0.000201891    -1.905685079       H   1  noname    0.101776
   13   H13       -0.180757808     0.000095842    -3.117156847       H   1  noname    0.192509
   14   H14       -2.280295039     0.000232833    -1.761301212       H   1  noname    0.077050


@<TRIPOS>BOND
    1      1      2    1
    2      2      3    2
    3      3      4    1
    4      4      5    2
    5      5      6    1
    6      6      7    2
    7      7      2    1
    8      1      8    1
    9      1      9    1
   10      1     10    1
   11      3     11    1
   12      4     12    1
   13      5     13    1
   14      6     14    1
#
#	File Created by: Spartan'20 Export
#

@<TRIPOS>MOLECULE
M0341
15 15
SMALL
USER_CHARGES


@<TRIPOS>ATOM
    1   C1        -2.215875655     0.091450436     0.219353084     C.3   1  noname   -0.772138
    2   C2        -0.717478079     0.001265726     0.103997282     C.2   1  noname    0.487674
    3   C3         0.078342138    -0.353793200     1.201602530     C.2   1  noname   -0.406467
    4   C4         1.462803290    -0.387725547     1.035128032     C.2   1  noname   -0.033920
    5   C5         2.043335435    -0.077361089    -0.180412477     C.2   1  noname   -0.292665
    6   N6         1.263575710     0.273200893    -1.264731090       N   1  noname    0.619227
    7   O7         1.791814627     0.555127583    -2.383747061       O   1  noname   -0.628486
    8   C8        -0.108334433     0.307247875    -1.103039478     C.2   1  noname   -0.429265
    9   H9        -2.609643651    -0.745465940     0.802380588       H   1  noname    0.209128
   10   H10       -2.510245966     1.017658413     0.722730228       H   1  noname    0.215599
   11   H11       -2.691182905     0.076157447    -0.764235719       H   1  noname    0.217724
   12   H12       -0.375940685    -0.602468122     2.157116012       H   1  noname    0.210525
   13   H13        2.117522461    -0.661482287     1.858093947       H   1  noname    0.157137
   14   H14        3.105081867    -0.081240611    -0.394818485       H   1  noname    0.209979
   15   H15       -0.633774154     0.587428423    -2.009417394       H   1  noname    0.235948


@<TRIPOS>BOND
    1      1      2    1
    2      2      3    2
    3      3      4    1
    4      4      5    2
    5      5      6    1
    6      6      7    1
    7      6      8    2
    8      8      2    1
    9      1      9    1
   10      1     10    1
   11      1     11    1
   12      3     12    1
   13      4     13    1
   14      5     14    1
   15      8     15    1
#
#	File Created by: Spartan'20 Export
#

@<TRIPOS>MOLECULE
M0342
14 14
SMALL
USER_CHARGES


@<TRIPOS>ATOM
    1   C1        -2.074605893     0.008465381     0.266166833     C.3   1  noname   -0.828800
    2   C2        -0.595371531    -0.001634892    -0.006756035     C.2   1  noname    0.113067
    3   C3         0.341462875     0.021174782     1.032248079     C.2   1  noname   -0.004944
    4   C4         1.699969902     0.014575774     0.725959333     C.2   1  noname   -0.446633
    5   C5         2.085237941    -0.014592696    -0.615413840     C.2   1  noname    0.367330
    6   N6         1.209585079    -0.037907010    -1.635253259     N.2   1  noname   -0.608024
    7   C7        -0.096389659    -0.030644238    -1.314223994     C.2   1  noname    0.241426
    8   H8        -2.365203123    -0.842561261     0.888031565       H   1  noname    0.229011
    9   H9        -2.370799256     0.920661518     0.794706092       H   1  noname    0.229179
   10   H10       -2.644642761    -0.042056790    -0.665774664       H   1  noname    0.224643
   11   H11        0.008936366     0.043194404     2.068784038       H   1  noname    0.146593
   12   H12        2.450965875     0.031156275     1.511005833       H   1  noname    0.185534
   13   H13        3.137846770    -0.020526244    -0.892001805       H   1  noname    0.062424
   14   H14       -0.786992585    -0.049305003    -2.157478176       H   1  noname    0.089195


@<TRIPOS>BOND
    1      1      2    1
    2      2      3    2
    3      3      4    1
    4      4      5    2
    5      5      6    1
    6      6      7    2
    7      7      2    1
    8      1      8    1
    9      1      9    1
   10      1     10    1
   11      3     11    1
   12      4     12    1
   13      5     13    1
   14      7     14    1
#
#	File Created by: Spartan'20 Export
#

@<TRIPOS>MOLECULE
M0343
15 15
SMALL
USER_CHARGES


@<TRIPOS>ATOM
    1   C1        -0.000037455    -0.011097596    -2.268833427     C.3   1  noname   -0.745640
    2   C2         0.000088498     0.019862371    -0.765391266     C.2   1  noname    0.411626
    3   C3        -1.186198933     0.012503189    -0.021611884     C.2   1  noname   -0.313162
    4   C4        -1.183782755     0.001581208     1.360534105     C.2   1  noname   -0.180954
    5   N5        -0.000026576    -0.004985300     2.072756980       N   1  noname    0.528932
    6   O6         0.000093403    -0.012138354     3.339851565       O   1  noname   -0.633234
    7   C7         1.183723867     0.001205428     1.360564146     C.2   1  noname   -0.179132
    8   C8         1.186331643     0.012105409    -0.021560345     C.2   1  noname   -0.314539
    9   H9         0.883042742     0.492337821    -2.670609170       H   1  noname    0.203710
   10   H10        0.001287466    -1.038381919    -2.648677171       H   1  noname    0.210095
   11   H11       -0.884622485     0.490033650    -2.670355206       H   1  noname    0.203606
   12   H12       -2.150698991     0.018996026    -0.524573174       H   1  noname    0.200933
   13   H13       -2.064310232     0.000261245     1.991077930       H   1  noname    0.203541
   14   H14        2.064201175    -0.000487494     1.991211320       H   1  noname    0.202985
   15   H15        2.150908634     0.018204315    -0.524384403       H   1  noname    0.201234


@<TRIPOS>BOND
    1      1      2    1
    2      2      3    2
    3      3      4    1
    4      4      5    2
    5      5      6    1
    6      5      7    1
    7      7      8    2
    8      8      2    1
    9      1      9    1
   10      1     10    1
   11      1     11    1
   12      3     12    1
   13      4     13    1
   14      7     14    1
   15      8     15    1
#
#	File Created by: Spartan'20 Export
#

@<TRIPOS>MOLECULE
M0344
17 17
SMALL
USER_CHARGES


@<TRIPOS>ATOM
    1   C1         1.403248285    -0.000012063    -1.373520732     C.3   1  noname   -0.740929
    2   C2         0.651181569    -0.000004048    -0.070808516     C.2   1  noname    0.531237
    3   C3         1.321683662    -0.000019738     1.154635359     C.2   1  noname   -0.616921
    4   C4         0.595787837    -0.000003042     2.344863116     C.2   1  noname    0.369190
    5   N5        -0.747511606     0.000027482     2.391500438     N.2   1  noname   -0.622176
    6   C6        -1.384228960     0.000028561     1.207881229     C.2   1  noname    0.246213
    7   C7        -0.755006152    -0.000004859    -0.041975376     C.2   1  noname   -0.088979
    8   C8        -1.570046589     0.000002779    -1.305557968     C.3   1  noname   -0.670978
    9   H9         1.156347714     0.881461130    -1.974611577       H   1  noname    0.202726
   10   H10        1.156395145    -0.881515518    -1.974552497       H   1  noname    0.202732
   11   H11        2.481849062     0.000037516    -1.198531206       H   1  noname    0.203240
   12   H12        2.409287897    -0.000041162     1.184193472       H   1  noname    0.219210
   13   H13        1.106776236    -0.000009402     3.306243644       H   1  noname    0.075813
   14   H14       -2.473382393     0.000061108     1.260830284       H   1  noname    0.102285
   15   H15       -2.638135484    -0.000116237    -1.073894622       H   1  noname    0.190046
   16   H16       -1.357049689    -0.882051010    -1.918410166       H   1  noname    0.198645
   17   H17       -1.357196536     0.882158503    -1.918284884       H   1  noname    0.198647


@<TRIPOS>BOND
    1      1      2    1
    2      2      3    2
    3      3      4    1
    4      4      5    2
    5      5      6    1
    6      6      7    2
    7      7      8    1
    8      7      2    1
    9      1      9    1
   10      1     10    1
   11      1     11    1
   12      3     12    1
   13      4     13    1
   14      6     14    1
   15      8     15    1
   16      8     16    1
   17      8     17    1
#
#	File Created by: Spartan'20 Export
#

@<TRIPOS>MOLECULE
M0345
19 20
SMALL
USER_CHARGES


@<TRIPOS>ATOM
    1   C1         1.994407660     0.000006785     1.707706418     C.3   1  noname   -0.563612
    2   N2         0.618938123     0.000000320     1.249065717   N.pl3   1  noname    0.189362
    3   C3         0.231640396     0.000006837    -0.081804712     C.2   1  noname   -0.030397
    4   C4         0.976572777    -0.000003054    -1.261412126     C.2   1  noname   -0.202725
    5   C5         0.262055310     0.000003323    -2.460396544     C.2   1  noname   -0.189774
    6   C6        -1.143463030     0.000011116    -2.478318344     C.2   1  noname   -0.092218
    7   C7        -1.888235063     0.000010288    -1.297723510     C.2   1  noname   -0.377672
    8   C8        -1.174694468    -0.000000615    -0.100406568     C.2   1  noname    0.374545
    9   N9        -1.564608175    -0.000007368     1.225002620   N.pl3   1  noname   -0.532852
   10   C10       -0.484754082    -0.000010549     2.080712740     C.2   1  noname    0.215721
   11   S11       -0.535528152    -0.000040805     3.738922276     S.2   1  noname   -0.432544
   12   H12        2.508054105     0.894083492     1.345934115       H   1  noname    0.188402
   13   H13        1.972196067     0.000114293     2.796778076       H   1  noname    0.189497
   14   H14        2.508015484    -0.894166421     1.346117874       H   1  noname    0.188398
   15   H15        2.063059478    -0.000011492    -1.250652434       H   1  noname    0.179514
   16   H16        0.805589978    -0.000000563    -3.401167644       H   1  noname    0.155707
   17   H17       -1.663289786     0.000019258    -3.432345578       H   1  noname    0.145487
   18   H18       -2.974961699     0.000012250    -1.312823913       H   1  noname    0.206119
   19   H19       -2.510994921    -0.000027092     1.586811533       H   1  noname    0.389043


@<TRIPOS>BOND
    1      1      2    1
    2      2      3    1
    3      3      4    2
    4      4      5    1
    5      5      6    2
    6      6      7    1
    7      7      8    2
    8      8      9    1
    9      9     10    1
   10     10     11    2
   11     10      2    1
   12      8      3    1
   13      1     12    1
   14      1     13    1
   15      1     14    1
   16      4     15    1
   17      5     16    1
   18      6     17    1
   19      7     18    1
   20      9     19    1
#
#	File Created by: Spartan'20 Export
#

@<TRIPOS>MOLECULE
M0346
27 29
SMALL
USER_CHARGES


@<TRIPOS>ATOM
    1   C1         2.466537983    -0.000253348     0.363937990     C.3   1  noname   -0.442894
    2   N2         1.027328233     0.000216854     0.135659547   N.pl3   1  noname   -0.177907
    3   C3         0.347566036     1.209781219     0.022249906     C.2   1  noname    0.305284
    4   C4         1.041142673     2.430485464    -0.134037634     C.2   1  noname   -0.328776
    5   C5         0.344377174     3.628568713    -0.214844181     C.2   1  noname   -0.031096
    6   C6        -1.056082423     3.656443331    -0.143652332     C.2   1  noname   -0.247839
    7   C7        -1.748527586     2.464156441    -0.013473624     C.2   1  noname   -0.029143
    8   C8        -1.065563179     1.240026895     0.064937739     C.2   1  noname   -0.207012
    9   C9        -1.847066756     0.000041558     0.191330761     C.2   1  noname    0.531719
   10   O10       -3.078580199    -0.000052595     0.341293846     O.2   1  noname   -0.562636
   11   C11       -1.065533287    -1.239814402     0.064605103     C.2   1  noname   -0.206412
   12   C12        0.347509526    -1.209564230     0.022068132     C.2   1  noname    0.304557
   13   C13        1.041369959    -2.430274505    -0.134093418     C.2   1  noname   -0.328147
   14   C14        0.344849523    -3.628368576    -0.215200736     C.2   1  noname   -0.031396
   15   C15       -1.055642386    -3.656271895    -0.144355450     C.2   1  noname   -0.247554
   16   C16       -1.748292809    -2.464008943    -0.014103318     C.2   1  noname   -0.029511
   17   H17        2.729522432    -0.877512782     0.955013920       H   1  noname    0.175646
   18   H18        3.044017808    -0.005412572    -0.568483871       H   1  noname    0.161286
   19   H19        2.733610271     0.880789196     0.947449368       H   1  noname    0.176134
   20   H20        2.119998789     2.446993559    -0.243876296       H   1  noname    0.169897
   21   H21        0.901268173     4.553791068    -0.345881154       H   1  noname    0.135939
   22   H22       -1.589474978     4.601215614    -0.205887069       H   1  noname    0.150673
   23   H23       -2.833898481     2.430891010     0.033253483       H   1  noname    0.151350
   24   H24        2.120345240    -2.446398374    -0.243404087       H   1  noname    0.169787
   25   H25        0.901839668    -4.553538553    -0.346160928       H   1  noname    0.136006
   26   H26       -1.588958308    -4.601082084    -0.206808600       H   1  noname    0.150648
   27   H27       -2.833663097    -2.430848064     0.032462905       H   1  noname    0.151398


@<TRIPOS>BOND
    1      1      2    1
    2      2      3    1
    3      3      4    2
    4      4      5    1
    5      5      6    2
    6      6      7    1
    7      7      8    2
    8      8      9    1
    9      9     10    2
   10      9     11    1
   11     11     12    2
   12     12     13    1
   13     13     14    2
   14     14     15    1
   15     15     16    2
   16     12      2    1
   17      8      3    1
   18     16     11    1
   19      1     17    1
   20      1     18    1
   21      1     19    1
   22      4     20    1
   23      5     21    1
   24      6     22    1
   25      7     23    1
   26     13     24    1
   27     14     25    1
   28     15     26    1
   29     16     27    1
#
#	File Created by: Spartan'20 Export
#

@<TRIPOS>MOLECULE
M0347
22 23
SMALL
USER_CHARGES


@<TRIPOS>ATOM
    1   C1        -2.479486376     0.000006596     1.434918656     C.3   1  noname   -0.507707
    2   N2        -1.099013533    -0.000006010     0.991347470   N.pl3   1  noname    0.124074
    3   C3        -0.702580564    -0.000000124    -0.332866847     C.2   1  noname    0.087884
    4   C4        -1.433313670    -0.000010734    -1.520979809     C.2   1  noname   -0.253687
    5   C5        -0.703061333    -0.000005616    -2.711012117     C.2   1  noname   -0.140390
    6   C6         0.702694583     0.000001427    -2.711079848     C.2   1  noname   -0.146244
    7   C7         1.433259248     0.000005449    -1.521311901     C.2   1  noname   -0.250154
    8   C8         0.702881839    -0.000000345    -0.332859145     C.2   1  noname    0.089308
    9   N9         1.099216971    -0.000001184     0.991422725   N.pl3   1  noname    0.122755
   10   C10        0.000051789    -0.000002059     1.832081783     C.2   1  noname    0.018918
   11   S11       -0.000072259    -0.000006611     3.495163827     S.2   1  noname   -0.354404
   12   C12        2.479620030     0.000000228     1.435332094     C.3   1  noname   -0.505161
   13   H13       -2.470862508     0.000024757     2.524429967       H   1  noname    0.166889
   14   H14       -2.989734228    -0.894237959     1.066790733       H   1  noname    0.181150
   15   H15       -2.989724156     0.894243658     1.066756319       H   1  noname    0.181152
   16   H16       -2.520063983    -0.000018019    -1.524178853       H   1  noname    0.182025
   17   H17       -1.234457633    -0.000010897    -3.659112881       H   1  noname    0.147069
   18   H18        1.234004962     0.000006162    -3.659219273       H   1  noname    0.148193
   19   H19        2.520009334     0.000009018    -1.525148990       H   1  noname    0.181231
   20   H20        2.989956244     0.894251006     1.067360667       H   1  noname    0.180411
   21   H21        2.989962097    -0.894242539     1.067350185       H   1  noname    0.180411
   22   H22        2.470713147    -0.000006204     2.524815239       H   1  noname    0.166276


@<TRIPOS>BOND
    1      1      2    1
    2      2      3    1
    3      3      4    2
    4      4      5    1
    5      5      6    2
    6      6      7    1
    7      7      8    2
    8      8      9    1
    9      9     10    1
   10     10     11    2
   11      9     12    1
   12     10      2    1
   13      8      3    1
   14      1     13    1
   15      1     14    1
   16      1     15    1
   17      4     16    1
   18      5     17    1
   19      6     18    1
   20      7     19    1
   21     12     20    1
   22     12     21    1
   23     12     22    1
#
#	File Created by: Spartan'20 Export
#

@<TRIPOS>MOLECULE
M0348
13 13
SMALL
USER_CHARGES


@<TRIPOS>ATOM
    1   C1         1.852168719    -0.215497786     0.031424558     C.3   1  noname   -0.737470
    2   N2         0.405015178    -0.086115534     0.014368983   N.pl3   1  noname    0.646962
    3   C3        -0.486225850    -1.134126384    -0.143067182     C.2   1  noname   -0.511700
    4   C4        -1.741602547    -0.604051305    -0.128978494     C.2   1  noname   -0.101737
    5   N5        -1.580676862     0.756592714     0.033043923   N.pl3   1  noname   -0.171246
    6   C6        -0.259242374     1.114889464     0.122839831     C.2   1  noname   -0.142322
    7   S7         0.363967439     2.652728719     0.319514983     S.2   1  noname   -0.402858
    8   H8         2.228706560    -0.423468065    -0.973008282       H   1  noname    0.211171
    9   H9         2.135290751    -1.022141756     0.711739074       H   1  noname    0.212262
   10   H10        2.256321479     0.733591934     0.382392335       H   1  noname    0.209581
   11   H11       -0.152996287    -2.155766958    -0.244842034       H   1  noname    0.271034
   12   H12       -2.709563729    -1.072444549    -0.214150312       H   1  noname    0.202972
   13   H13       -2.311162475     1.455809504     0.088722619       H   1  noname    0.313350


@<TRIPOS>BOND
    1      1      2    1
    2      2      3    1
    3      3      4    2
    4      4      5    1
    5      5      6    1
    6      6      7    2
    7      6      2    1
    8      1      8    1
    9      1      9    1
   10      1     10    1
   11      3     11    1
   12      4     12    1
   13      5     13    1
#
#	File Created by: Spartan'20 Export
#

@<TRIPOS>MOLECULE
M0349
18 18
SMALL
USER_CHARGES


@<TRIPOS>ATOM
    1   C1         2.352078833     1.073862963    -0.203708255     C.3   1  noname   -0.536451
    2   N2         1.162110383     0.231054747    -0.099928839    N.am   1  noname   -0.022440
    3   C3         1.291738250    -1.133049834    -0.001780444     C.2   1  noname    0.015508
    4   C4         0.228339185    -1.957137912     0.123631273     C.2   1  noname   -0.639675
    5   C5        -1.117532903    -1.417151776     0.163269012     C.2   1  noname    0.817789
    6   O6        -2.140411905    -2.093221341     0.274871689     O.2   1  noname   -0.599776
    7   N7        -1.171249864    -0.007745730     0.060904477    N.am   1  noname   -0.212651
    8   C8        -0.086081095     0.852916597    -0.058151671     C.2   1  noname    0.648828
    9   O9        -0.223791894     2.073572290    -0.124463787     O.2   1  noname   -0.568409
   10   C10       -2.482506110     0.644621001     0.093785787     C.3   1  noname   -0.582100
   11   H11        2.992931950     0.708945215    -1.009729488       H   1  noname    0.180485
   12   H12        2.018127626     2.085749477    -0.424748641       H   1  noname    0.219306
   13   H13        2.906195066     1.070461188     0.739809490       H   1  noname    0.183375
   14   H14        2.313323785    -1.501657907    -0.035684412       H   1  noname    0.203418
   15   H15        0.347758898    -3.030598145     0.195923104       H   1  noname    0.252300
   16   H16       -2.532829617     1.326008241     0.943664764       H   1  noname    0.207788
   17   H17       -2.631801407     1.215962329    -0.822859657       H   1  noname    0.205127
   18   H18       -3.226399180    -0.142591403     0.185195597       H   1  noname    0.227580


@<TRIPOS>BOND
    1      1      2    1
    2      2      3    1
    3      3      4    2
    4      4      5    1
    5      5      6    2
    6      5      7    am
    7      7      8    am
    8      8      9    2
    9      7     10    1
   10      8      2    am
   11      1     11    1
   12      1     12    1
   13      1     13    1
   14      3     14    1
   15      4     15    1
   16     10     16    1
   17     10     17    1
   18     10     18    1
#
#	File Created by: Spartan'20 Export
#

@<TRIPOS>MOLECULE
M0350
13 13
SMALL
USER_CHARGES


@<TRIPOS>ATOM
    1   C1        -0.000383143     0.016524548    -1.879109473     C.3   1  noname   -0.658248
    2   N2         0.000651954    -0.053178281    -0.429199354   N.pl3   1  noname    0.401602
    3   C3        -1.119646226    -0.023108376     0.365320028     C.2   1  noname   -0.349107
    4   C4        -0.707874777     0.015196567     1.685889150     C.2   1  noname   -0.215024
    5   C5         0.707951759     0.016614751     1.686390023     C.2   1  noname   -0.212324
    6   C6         1.120688434    -0.020641310     0.366133522     C.2   1  noname   -0.350159
    7   H7         0.882913435    -0.496578443    -2.261293744       H   1  noname    0.201383
    8   H8        -0.889654780    -0.487980228    -2.259249262       H   1  noname    0.202136
    9   H9         0.004490176     1.052647774    -2.228737003       H   1  noname    0.207200
   10   H10       -2.108637117    -0.036094846    -0.073395012       H   1  noname    0.212631
   11   H11       -1.360479176     0.022907871     2.548926512       H   1  noname    0.173829
   12   H12        1.359872919     0.025459895     2.549979665       H   1  noname    0.173238
   13   H13        2.110106542    -0.031769920    -0.071655050       H   1  noname    0.212843


@<TRIPOS>BOND
    1      1      2    1
    2      2      3    1
    3      3      4    2
    4      4      5    1
    5      5      6    2
    6      6      2    1
    7      1      7    1
    8      1      8    1
    9      1      9    1
   10      3     10    1
   11      4     11    1
   12      5     12    1
   13      6     13    1
#
#	File Created by: Spartan'20 Export
#

@<TRIPOS>MOLECULE
M0351
15 15
SMALL
USER_CHARGES


@<TRIPOS>ATOM
    1   C1         0.689080832    -0.000003171     2.039011354     C.3   1  noname   -0.668902
    2   N2         0.218786297     0.000021103     0.652405812    N.am   1  noname    0.124414
    3   C3         1.140433794     0.000074177    -0.358551365     C.2   1  noname   -0.114942
    4   C4         0.764847674     0.000063934    -1.672410979     C.2   1  noname   -0.349423
    5   C5        -0.622311698    -0.000002216    -1.973368188     C.2   1  noname    0.101051
    6   C6        -1.548349354    -0.000054179    -0.966195265     C.2   1  noname   -0.523058
    7   C7        -1.180406047    -0.000079379     0.433622603     C.2   1  noname    0.692331
    8   O8        -1.977421295    -0.000166771     1.382249342     O.2   1  noname   -0.640311
    9   H9        -0.193340560     0.000470236     2.675925102       H   1  noname    0.250282
   10   H10        1.287709645     0.893468628     2.229670705       H   1  noname    0.203220
   11   H11        1.286930671    -0.893929427     2.229972035       H   1  noname    0.203235
   12   H12        2.180068923     0.000125847    -0.043105655       H   1  noname    0.200727
   13   H13        1.519764572     0.000116191    -2.449989506       H   1  noname    0.178460
   14   H14       -0.951584192    -0.000001406    -3.009890893       H   1  noname    0.132591
   15   H15       -2.614209261    -0.000103568    -1.169345102       H   1  noname    0.210324


@<TRIPOS>BOND
    1      1      2    1
    2      2      3    1
    3      3      4    2
    4      4      5    1
    5      5      6    2
    6      6      7    1
    7      7      8    2
    8      7      2    am
    9      1      9    1
   10      1     10    1
   11      1     11    1
   12      3     12    1
   13      4     13    1
   14      5     14    1
   15      6     15    1
#
#	File Created by: Spartan'20 Export
#

@<TRIPOS>MOLECULE
M0352
12 12
SMALL
USER_CHARGES


@<TRIPOS>ATOM
    1   C1        -0.206796427     0.000169066    -1.851406980     C.3   1  noname   -0.735954
    2   N2        -0.125335344    -0.000134165    -0.403188168   N.pl3   1  noname    0.560978
    3   C3         0.992653713    -0.000398602     0.374107077     C.2   1  noname   -0.277874
    4   C4         0.554159067     0.000199723     1.689090276     C.2   1  noname   -0.339776
    5   C5        -0.846254955     0.000028539     1.597513075     C.2   1  noname    0.060034
    6   N6        -1.266470994    -0.000729248     0.314833721     N.2   1  noname   -0.501949
    7   H7        -0.738909124     0.890923258    -2.188601215       H   1  noname    0.230191
    8   H8         0.806621837     0.000426067    -2.254361761       H   1  noname    0.212122
    9   H9        -0.738587270    -0.890656623    -2.188948355       H   1  noname    0.230240
   10   H10        1.983334801    -0.000648299    -0.059805538       H   1  noname    0.211202
   11   H11        1.167047003     0.000564839     2.579105117       H   1  noname    0.200457
   12   H12       -1.581462307     0.000255446     2.391662753       H   1  noname    0.150329


@<TRIPOS>BOND
    1      1      2    1
    2      2      3    1
    3      3      4    2
    4      4      5    1
    5      5      6    2
    6      6      2    1
    7      1      7    1
    8      1      8    1
    9      1      9    1
   10      3     10    1
   11      4     11    1
   12      5     12    1
#
#	File Created by: Spartan'20 Export
#

@<TRIPOS>MOLECULE
M0353
12 12
SMALL
USER_CHARGES


@<TRIPOS>ATOM
    1   C1        -0.128464368    -0.000031735    -1.685665443     C.3   1  noname   -0.698119
    2   N2        -0.090316002    -0.000251136    -0.231392582   N.pl3   1  noname    0.374674
    3   C3         1.032234662     0.000637520     0.564665087     C.2   1  noname   -0.511693
    4   C4         0.564921172     0.000092604     1.861721506     C.2   1  noname    0.132092
    5   N5        -0.809649202    -0.000672315     1.886856713     N.2   1  noname   -0.529657
    6   C6        -1.168087166    -0.000497524     0.609097415     C.2   1  noname    0.052180
    7   H7        -0.639129924     0.892747082    -2.051292481       H   1  noname    0.205328
    8   H8         0.894662228    -0.002104768    -2.060745707       H   1  noname    0.245248
    9   H9        -0.642665420    -0.890750360    -2.051303516       H   1  noname    0.205428
   10   H10        2.028135188     0.001308988     0.145103357       H   1  noname    0.243780
   11   H11        1.143681145     0.000230714     2.775473007       H   1  noname    0.127255
   12   H12       -2.185322313    -0.000709070     0.237482643       H   1  noname    0.153484


@<TRIPOS>BOND
    1      1      2    1
    2      2      3    1
    3      3      4    2
    4      4      5    1
    5      5      6    2
    6      6      2    1
    7      1      7    1
    8      1      8    1
    9      1      9    1
   10      3     10    1
   11      4     11    1
   12      6     12    1
#
#	File Created by: Spartan'20 Export
#

@<TRIPOS>MOLECULE
M0354
4 3
SMALL
USER_CHARGES


@<TRIPOS>ATOM
    1   N1         0.000000225     0.000000004     0.291704543     N.3   1  noname   -1.061830
    2   H2         0.939756288     0.000000000    -0.097234869       H   1  noname    0.354805
    3   H3        -0.469878256    -0.813851818    -0.097234838       H   1  noname    0.353512
    4   H4        -0.469878257     0.813851816    -0.097234836       H   1  noname    0.353512


@<TRIPOS>BOND
    1      1      2    1
    2      1      3    1
    3      1      4    1
#
#	File Created by: Spartan'20 Export
#

@<TRIPOS>MOLECULE
M0355
3 2
SMALL
USER_CHARGES


@<TRIPOS>ATOM
    1   O1         0.000000000     0.000000000     0.398006586     O.3   1  noname   -0.804246
    2   H2         0.000000000    -0.762826267    -0.199003293       H   1  noname    0.402123
    3   H3         0.000000000     0.762826267    -0.199003293       H   1  noname    0.402123


@<TRIPOS>BOND
    1      1      2    1
    2      1      3    1
#
#	File Created by: Spartan'20 Export
#

@<TRIPOS>MOLECULE
M0356
5 4
SMALL
USER_CHARGES


@<TRIPOS>ATOM
    1   O1        -0.000024678    -0.000000222     1.689604670     O.2   1  noname   -0.617602
    2   P2         0.000052768     0.000000213     0.212235652       P   1  noname    1.040275
    3   Cl3        0.911325550     1.578627142    -0.633942537      Cl   1  noname   -0.141235
    4   Cl4       -1.822679022    -0.000000089    -0.633955811      Cl   1  noname   -0.140202
    5   Cl5        0.911325383    -1.578627043    -0.633941974      Cl   1  noname   -0.141235


@<TRIPOS>BOND
    1      1      2    2
    2      2      3    1
    3      2      4    1
    4      2      5    1
#
#	File Created by: Spartan'20 Export
#

@<TRIPOS>MOLECULE
M0357
4 3
SMALL
USER_CHARGES


@<TRIPOS>ATOM
    1   O1        -1.502720569     0.000003296     0.403884603     O.2   1  noname   -0.382369
    2   S2        -0.353850430     0.000000241    -0.501293447       S   1  noname    0.641501
    3   Cl3        0.928287566    -1.599499913     0.048703810      Cl   1  noname   -0.129568
    4   Cl4        0.928283434     1.599496375     0.048705034      Cl   1  noname   -0.129564


@<TRIPOS>BOND
    1      1      2    2
    2      2      3    1
    3      2      4    1
#
#	File Created by: Spartan'20 Export
#

@<TRIPOS>MOLECULE
M0358
12 12
SMALL
USER_CHARGES


@<TRIPOS>ATOM
    1   C1         0.000009598     0.000000000    -1.405716413     C.2   1  noname   -0.321359
    2   C2        -1.183453515     0.000000000    -0.667424622     C.2   1  noname    0.223062
    3   C3        -1.191835658     0.000000000     0.715490598     C.2   1  noname   -0.333602
    4   N4        -0.000008601     0.000000000     1.418570629       N   1  noname    0.627712
    5   O5         0.000005514     0.000000000     2.681133211       O   1  noname   -0.595914
    6   C6         1.191842974     0.000000000     0.715496192     C.2   1  noname   -0.333610
    7   C7         1.183460715     0.000000000    -0.667406876     C.2   1  noname    0.223070
    8   Cl8        2.707387680     0.000000000    -1.488003958      Cl   1  noname   -0.080695
    9   Cl9       -2.707437369     0.000000000    -1.487893989      Cl   1  noname   -0.080689
   10   H10        0.000063934     0.000000000    -2.489641152       H   1  noname    0.207826
   11   H11       -2.077672578     0.000000000     1.337656827       H   1  noname    0.232096
   12   H12        2.077637306     0.000000000     1.337739554       H   1  noname    0.232102


@<TRIPOS>BOND
    1      1      2    2
    2      2      3    1
    3      3      4    2
    4      4      5    1
    5      4      6    1
    6      6      7    2
    7      7      8    1
    8      2      9    1
    9      7      1    1
   10      1     10    1
   11      3     11    1
   12      6     12    1
#
#	File Created by: Spartan'20 Export
#

@<TRIPOS>MOLECULE
M0359
11 11
SMALL
USER_CHARGES


@<TRIPOS>ATOM
    1   C1        -0.000021269     0.000000000    -1.148585013     C.2   1  noname    0.055201
    2   C2        -1.187792237     0.000000000    -0.421633679     C.2   1  noname   -0.122042
    3   C3        -1.151913407     0.000000000     0.975171727     C.2   1  noname    0.302414
    4   N4         0.000014965     0.000000000     1.663139471     N.2   1  noname   -0.571248
    5   C5         1.151937880     0.000000000     0.975256042     C.2   1  noname    0.302457
    6   C6         1.187761919     0.000000000    -0.421545888     C.2   1  noname   -0.122089
    7   Cl7        2.709712253     0.000000000    -1.247274480      Cl   1  noname   -0.091600
    8   Cl8       -2.709785266     0.000000000    -1.247126000      Cl   1  noname   -0.091570
    9   H9         0.000072469     0.000000000    -2.234214779       H   1  noname    0.148847
   10   H10       -2.072681069     0.000000000     1.553345787       H   1  noname    0.094813
   11   H11        2.072693763     0.000000000     1.553466812       H   1  noname    0.094818


@<TRIPOS>BOND
    1      1      2    2
    2      2      3    1
    3      3      4    2
    4      4      5    1
    5      5      6    2
    6      6      7    1
    7      2      8    1
    8      6      1    1
    9      1      9    1
   10      3     10    1
   11      5     11    1
#
#	File Created by: Spartan'20 Export
#

@<TRIPOS>MOLECULE
M0360
10 10
SMALL
USER_CHARGES


@<TRIPOS>ATOM
    1   C1        -1.195220008     0.000000000     0.332010462     C.2   1  noname    0.608812
    2   C2         0.000083707     0.000000000     1.049599115     C.2   1  noname   -0.519995
    3   C3         1.195373201     0.000000000     0.332002181     C.2   1  noname    0.608773
    4   N4         1.201103098     0.000000000    -1.009923685     N.2   1  noname   -0.771964
    5   C5        -0.000035130     0.000000000    -1.608613919     C.2   1  noname    0.748233
    6   N6        -1.201202383     0.000000000    -1.009912395     N.2   1  noname   -0.771920
    7   Br7       -0.000396072     0.000000000     2.941460631      Br   1  noname   -0.012822
    8   H8        -2.159968529     0.000000000     0.834565457       H   1  noname    0.042029
    9   H9         2.160274929     0.000000000     0.834305396       H   1  noname    0.042078
   10   H10       -0.000012812     0.000000000    -2.695493243       H   1  noname    0.026777


@<TRIPOS>BOND
    1      1      2    2
    2      2      3    1
    3      3      4    2
    4      4      5    1
    5      5      6    2
    6      2      7    1
    7      6      1    1
    8      1      8    1
    9      3      9    1
   10      5     10    1
#
#	File Created by: Spartan'20 Export
#

@<TRIPOS>MOLECULE
M0361
14 14
SMALL
USER_CHARGES


@<TRIPOS>ATOM
    1   C1         0.574621264     1.588798514    -0.181590406     C.2   1  noname   -0.100680
    2   C2        -0.708518146     1.047667956    -0.140400776     C.2   1  noname   -0.403087
    3   C3        -0.885840396    -0.337146727    -0.003757253     C.2   1  noname    0.557935
    4   C4         0.242048365    -1.166396524     0.062473122     C.2   1  noname   -0.410831
    5   C5         1.513742722    -0.600989906     0.019335717     C.2   1  noname    0.154216
    6   C6         1.704468833     0.774021908    -0.102281390     C.2   1  noname   -0.237068
    7   Cl7        2.902179452    -1.652143467     0.117868810      Cl   1  noname   -0.119710
    8   N8        -2.169702345    -0.897654078    -0.033269675     N.3   1  noname   -0.925800
    9   H9         0.698102895     2.664360902    -0.281156015       H   1  noname    0.165312
   10   H10       -1.578645857     1.697123936    -0.211482226       H   1  noname    0.196880
   11   H11        0.129047246    -2.244474496     0.147967132       H   1  noname    0.204777
   12   H12        2.705992661     1.190374312    -0.132275374       H   1  noname    0.166365
   13   H13       -2.234770444    -1.793074939     0.437488979       H   1  noname    0.377152
   14   H14       -2.892726248    -0.270467391     0.301079355       H   1  noname    0.374539


@<TRIPOS>BOND
    1      1      2    2
    2      2      3    1
    3      3      4    2
    4      4      5    1
    5      5      6    2
    6      5      7    1
    7      3      8    1
    8      6      1    1
    9      1      9    1
   10      2     10    1
   11      4     11    1
   12      6     12    1
   13      8     13    1
   14      8     14    1
#
#	File Created by: Spartan'20 Export
#

@<TRIPOS>MOLECULE
M0362
13 13
SMALL
USER_CHARGES


@<TRIPOS>ATOM
    1   C1        -1.216699107     0.000000000     0.409678559     C.2   1  noname   -0.178860
    2   C2        -1.216129304     0.000000000    -0.982655004     C.2   1  noname   -0.181302
    3   C3         0.000029745     0.000000000    -1.669535752     C.2   1  noname    0.173861
    4   C4         1.216309940     0.000000000    -0.983024748     C.2   1  noname   -0.181249
    5   C5         1.217166364     0.000000000     0.409307968     C.2   1  noname   -0.178934
    6   C6         0.000314490     0.000000000     1.108442110     C.2   1  noname    0.129768
    7   C7        -0.000015706     0.000000000     2.543411727     C.1   1  noname    0.213421
    8   N8        -0.001449845     0.000000000     3.727303115     N.1   1  noname   -0.389848
    9   Cl9       -0.000261195     0.000000000    -3.405728655      Cl   1  noname   -0.114595
   10   H10       -2.155615660     0.000000000     0.956797662       H   1  noname    0.186875
   11   H11       -2.151311724     0.000000000    -1.534785402       H   1  noname    0.167007
   12   H12        2.151371841     0.000000000    -1.535336449       H   1  noname    0.167011
   13   H13        2.156290160     0.000000000     0.956124869       H   1  noname    0.186845


@<TRIPOS>BOND
    1      1      2    2
    2      2      3    1
    3      3      4    2
    4      4      5    1
    5      5      6    2
    6      6      7    1
    7      7      8    3
    8      3      9    1
    9      6      1    1
   10      1     10    1
   11      2     11    1
   12      4     12    1
   13      5     13    1
#
#	File Created by: Spartan'20 Export
#

@<TRIPOS>MOLECULE
M0363
14 14
SMALL
USER_CHARGES


@<TRIPOS>ATOM
    1   C1        -1.197104769     0.000000000     0.299327973     C.2   1  noname   -0.133531
    2   C2        -1.292922232     0.000000000    -1.087823401     C.2   1  noname   -0.196665
    3   C3        -0.122775906     0.000000000    -1.853987547     C.2   1  noname    0.171678
    4   C4         1.137249828     0.000000000    -1.253253972     C.2   1  noname   -0.152902
    5   C5         1.222272162     0.000000000     0.137778726     C.2   1  noname   -0.239259
    6   C6         0.060572570     0.000000000     0.916754787     C.2   1  noname    0.076413
    7   C7         0.161663071     0.000000000     2.392953773     C.2   1  noname    0.340161
    8   O8        -0.805100810     0.000000000     3.148734233     O.2   1  noname   -0.469938
    9   Cl9       -0.240019173     0.000000000    -3.587923189      Cl   1  noname   -0.121959
   10   H10       -2.088819502     0.000000000     0.920931538       H   1  noname    0.172085
   11   H11       -2.260928281     0.000000000    -1.580272240       H   1  noname    0.165379
   12   H12        2.031824188     0.000000000    -1.869095467       H   1  noname    0.157100
   13   H13        2.199372426     0.000000000     0.618381945       H   1  noname    0.169968
   14   H14        1.194716428     0.000000000     2.797492841       H   1  noname    0.061470


@<TRIPOS>BOND
    1      1      2    2
    2      2      3    1
    3      3      4    2
    4      4      5    1
    5      5      6    2
    6      6      7    1
    7      7      8    2
    8      3      9    1
    9      6      1    1
   10      1     10    1
   11      2     11    1
   12      4     12    1
   13      5     13    1
   14      7     14    1
#
#	File Created by: Spartan'20 Export
#

@<TRIPOS>MOLECULE
M0364
13 13
SMALL
USER_CHARGES


@<TRIPOS>ATOM
    1   C1        -1.279177818     0.000000000    -0.433586462     C.2   1  noname   -0.250674
    2   C2        -1.258092145     0.000000000     0.958930484     C.2   1  noname   -0.280409
    3   C3        -0.032018469     0.000000000     1.615405161     C.2   1  noname    0.359257
    4   C4         1.170696861     0.000000000     0.923480184     C.2   1  noname   -0.225071
    5   C5         1.143997117     0.000000000    -0.472746345     C.2   1  noname   -0.367087
    6   C6        -0.078355232     0.000000000    -1.150017518     C.2   1  noname    0.433054
    7   O7        -0.174252196     0.000000000    -2.521764709     O.3   1  noname   -0.636680
    8   F8        -0.011651598     0.000000000     2.974760641       F   1  noname   -0.250795
    9   H9        -2.217554167     0.000000000    -0.979623155       H   1  noname    0.200888
   10   H10       -2.176804803     0.000000000     1.536897529       H   1  noname    0.198790
   11   H11        2.108120863     0.000000000     1.470440690       H   1  noname    0.191248
   12   H12        2.079821506     0.000000000    -1.028978812       H   1  noname    0.188517
   13   H13        0.725270081     0.000000000    -2.893197688       H   1  noname    0.438962


@<TRIPOS>BOND
    1      1      2    2
    2      2      3    1
    3      3      4    2
    4      4      5    1
    5      5      6    2
    6      6      7    1
    7      3      8    1
    8      6      1    1
    9      1      9    1
   10      2     10    1
   11      4     11    1
   12      5     12    1
   13      7     13    1
#
#	File Created by: Spartan'20 Export
#

@<TRIPOS>MOLECULE
M0365
24 25
SMALL
USER_CHARGES


@<TRIPOS>ATOM
    1   C1        -0.673033115     1.942832504    -1.067374249     C.2   1  noname   -0.162429
    2   C2         0.245287371     2.984707991    -1.187505375     C.2   1  noname   -0.185525
    3   C3         0.953930011     3.405156978    -0.059975562     C.2   1  noname    0.136392
    4   C4         0.753337212     2.808425213     1.187205181     C.2   1  noname   -0.118785
    5   C5        -0.168707476     1.769396967     1.305223941     C.2   1  noname   -0.285575
    6   C6        -0.858254183     1.334164772     0.172522164     C.2   1  noname    0.172448
    7   S7        -2.071808174    -0.000050766     0.285966222       S   1  noname    0.289967
    8   O8        -2.835811806     0.000744521    -1.021606132     O.2   1  noname   -0.510549
    9   C9        -0.857150936    -1.333445944     0.167970223     C.2   1  noname    0.167957
   10   C10       -0.693587534    -1.956884886    -1.067489120     C.2   1  noname   -0.152233
   11   C11        0.223230663    -2.999885849    -1.191362804     C.2   1  noname   -0.190980
   12   C12        0.951615181    -3.406795085    -0.071617810     C.2   1  noname    0.139486
   13   C13        0.773416877    -2.794478346     1.171453548     C.2   1  noname   -0.116027
   14   C14       -0.146726670    -1.754311412     1.293257925     C.2   1  noname   -0.291863
   15   Cl15       2.092341676    -4.709620834    -0.221022544      Cl   1  noname   -0.124893
   16   Cl16       2.096964309     4.706489081    -0.205298422      Cl   1  noname   -0.124010
   17   H17       -1.259583202     1.601354081    -1.917512478       H   1  noname    0.175569
   18   H18        0.408841222     3.473849055    -2.143670733       H   1  noname    0.171788
   19   H19        1.303386121     3.164478003     2.053690449       H   1  noname    0.156864
   20   H20       -0.347017162     1.314493316     2.277868036       H   1  noname    0.174218
   21   H21       -1.294633513    -1.625019237    -1.911283620       H   1  noname    0.173321
   22   H22        0.370029929    -3.500256464    -2.144330511       H   1  noname    0.172065
   23   H23        1.339642095    -3.139258890     2.032084736       H   1  noname    0.155930
   24   H24       -0.305708894    -1.286084771     2.262806937       H   1  noname    0.176865


@<TRIPOS>BOND
    1      1      2    2
    2      2      3    1
    3      3      4    2
    4      4      5    1
    5      5      6    2
    6      6      7    1
    7      7      8    2
    8      7      9    1
    9      9     10    2
   10     10     11    1
   11     11     12    2
   12     12     13    1
   13     13     14    2
   14     12     15    1
   15      3     16    1
   16      6      1    1
   17     14      9    1
   18      1     17    1
   19      2     18    1
   20      4     19    1
   21      5     20    1
   22     10     21    1
   23     11     22    1
   24     13     23    1
   25     14     24    1
#
#	File Created by: Spartan'20 Export
#

@<TRIPOS>MOLECULE
M0366
11 11
SMALL
USER_CHARGES


@<TRIPOS>ATOM
    1   C1         0.955914320     0.000000000     0.937466915     C.2   1  noname   -0.525452
    2   C2         1.079954932     0.000000000    -0.451271718     C.2   1  noname    0.261124
    3   C3        -0.093625756     0.000000000    -1.201820627     C.2   1  noname   -0.325499
    4   C4        -1.334053647     0.000000000    -0.558044800     C.2   1  noname    0.464608
    5   N5        -1.452328131     0.000000000     0.779705700     N.2   1  noname   -0.650738
    6   C6        -0.319165851     0.000000000     1.504725816     C.2   1  noname    0.434798
    7   Br7       -0.021185307     0.000000000    -3.100342539      Br   1  noname   -0.045787
    8   H8         1.839094473     0.000000000     1.569897537       H   1  noname    0.198565
    9   H9         2.052301378     0.000000000    -0.934462254       H   1  noname    0.086148
   10   H10       -2.258642683     0.000000000    -1.130521209       H   1  noname    0.043380
   11   H11       -0.448263726     0.000000000     2.584667179       H   1  noname    0.058853


@<TRIPOS>BOND
    1      1      2    2
    2      2      3    1
    3      3      4    2
    4      4      5    1
    5      5      6    2
    6      3      7    1
    7      6      1    1
    8      1      8    1
    9      2      9    1
   10      4     10    1
   11      6     11    1
#
#	File Created by: Spartan'20 Export
#

@<TRIPOS>MOLECULE
M0367
12 12
SMALL
USER_CHARGES


@<TRIPOS>ATOM
    1   C1         0.980991230     0.000000000    -1.200894023     C.2   1  noname   -0.501312
    2   C2         1.079937753     0.000000000     0.187117611     C.2   1  noname    0.141825
    3   C3        -0.107681918     0.000000000     0.928158502     C.2   1  noname   -0.171971
    4   C4        -1.336081128     0.000000000     0.249267263     C.2   1  noname    0.348491
    5   N5        -1.433386589     0.000000000    -1.087478983     N.2   1  noname   -0.631465
    6   C6        -0.285736566     0.000000000    -1.788945723     C.2   1  noname    0.458237
    7   C7        -0.082005723     0.000000000     2.362873992     C.1   1  noname    0.240762
    8   N8        -0.067206645     0.000000000     3.546035256     N.1   1  noname   -0.390355
    9   H9         1.872368597     0.000000000    -1.821317339       H   1  noname    0.200724
   10   H10        2.043416726     0.000000000     0.689777800       H   1  noname    0.141377
   11   H11       -2.270716783     0.000000000     0.807069649       H   1  noname    0.100216
   12   H12       -0.393898955     0.000000000    -2.871664005       H   1  noname    0.063471


@<TRIPOS>BOND
    1      1      2    2
    2      2      3    1
    3      3      4    2
    4      4      5    1
    5      5      6    2
    6      3      7    1
    7      7      8    3
    8      6      1    1
    9      1      9    1
   10      2     10    1
   11      4     11    1
   12      6     12    1
#
#	File Created by: Spartan'20 Export
#

@<TRIPOS>MOLECULE
M0368
11 11
SMALL
USER_CHARGES


@<TRIPOS>ATOM
    1   C1         0.955945380     0.000000000    -0.922866088     C.2   1  noname   -0.484267
    2   C2         1.078912696     0.000000000     0.465420212     C.2   1  noname    0.142655
    3   C3        -0.092958713     0.000000000     1.217588626     C.2   1  noname   -0.141839
    4   C4        -1.331641869     0.000000000     0.571027974     C.2   1  noname    0.347635
    5   N5        -1.451855007     0.000000000    -0.765818556     N.2   1  noname   -0.619401
    6   C6        -0.318841736     0.000000000    -1.490774612     C.2   1  noname    0.408299
    7   Cl7       -0.026854138     0.000000000     2.950663597      Cl   1  noname   -0.112206
    8   H8         1.839127452     0.000000000    -1.555219582       H   1  noname    0.196009
    9   H9         2.049475821     0.000000000     0.952781159       H   1  noname    0.121460
   10   H10       -2.253876868     0.000000000     1.147993221       H   1  noname    0.079085
   11   H11       -0.447433019     0.000000000    -2.570795951       H   1  noname    0.062569


@<TRIPOS>BOND
    1      1      2    2
    2      2      3    1
    3      3      4    2
    4      4      5    1
    5      5      6    2
    6      3      7    1
    7      6      1    1
    8      1      8    1
    9      2      9    1
   10      4     10    1
   11      6     11    1
#
#	File Created by: Spartan'20 Export
#

@<TRIPOS>MOLECULE
M0369
11 11
SMALL
USER_CHARGES


@<TRIPOS>ATOM
    1   C1         0.954216391     0.000000000     0.893075191     C.2   1  noname   -0.425440
    2   C2         1.086007643     0.000000000    -0.495034106     C.2   1  noname    0.003348
    3   C3        -0.086144594     0.000000000    -1.237304592     C.2   1  noname    0.116898
    4   C4        -1.330588524     0.000000000    -0.613428806     C.2   1  noname    0.224440
    5   N5        -1.456528409     0.000000000     0.723815765     N.2   1  noname   -0.580831
    6   C6        -0.325118073     0.000000000     1.453016172     C.2   1  noname    0.356263
    7   F7        -0.025574406     0.000000000    -2.588641179       F   1  noname   -0.219410
    8   H8         1.832816700     0.000000000     1.531396806       H   1  noname    0.192441
    9   H9         2.050800786     0.000000000    -0.992219412       H   1  noname    0.155899
   10   H10       -2.241555315     0.000000000    -1.206829802       H   1  noname    0.108524
   11   H11       -0.458332199     0.000000000     2.532153964       H   1  noname    0.067868


@<TRIPOS>BOND
    1      1      2    2
    2      2      3    1
    3      3      4    2
    4      4      5    1
    5      5      6    2
    6      3      7    1
    7      6      1    1
    8      1      8    1
    9      2      9    1
   10      4     10    1
   11      6     11    1
#
#	File Created by: Spartan'20 Export
#

@<TRIPOS>MOLECULE
M0370
11 11
SMALL
USER_CHARGES


@<TRIPOS>ATOM
    1   C1         0.956454696     0.000000000     0.955156625     C.2   1  noname   -0.548166
    2   C2         1.078241834     0.000000000    -0.434181035     C.2   1  noname    0.314057
    3   C3        -0.095875235     0.000000000    -1.187762187     C.2   1  noname   -0.432136
    4   C4        -1.334447929     0.000000000    -0.538044309     C.2   1  noname    0.516813
    5   N5        -1.450734613     0.000000000     0.799878917     N.2   1  noname   -0.669839
    6   C6        -0.317103707     0.000000000     1.523633689     C.2   1  noname    0.454347
    7   I7        -0.022708258     0.000000000    -3.292488148       I   1  noname    0.017151
    8   H8         1.840695491     0.000000000     1.586554255       H   1  noname    0.198253
    9   H9         2.053368204     0.000000000    -0.912540719       H   1  noname    0.068940
   10   H10       -2.263051933     0.000000000    -1.104264788       H   1  noname    0.025987
   11   H11       -0.444838550     0.000000000     2.604057701       H   1  noname    0.054592


@<TRIPOS>BOND
    1      1      2    2
    2      2      3    1
    3      3      4    2
    4      4      5    1
    5      5      6    2
    6      3      7    1
    7      6      1    1
    8      1      8    1
    9      2      9    1
   10      4     10    1
   11      6     11    1
#
#	File Created by: Spartan'20 Export
#

@<TRIPOS>MOLECULE
M0371
13 13
SMALL
USER_CHARGES


@<TRIPOS>ATOM
    1   C1        -1.515834107     0.683680554    -0.185461543     C.2   1  noname   -0.434231
    2   C2        -0.170986837     1.016273066    -0.324793699     C.2   1  noname   -0.031407
    3   C3         0.798963209     0.061557017     0.005682182     C.2   1  noname    0.177333
    4   C4         0.347846057    -1.181969590     0.479447966     C.2   1  noname    0.191713
    5   N5        -0.943472204    -1.511853290     0.619739278     N.2   1  noname   -0.584118
    6   C6        -1.858524269    -0.582592152     0.288877746     C.2   1  noname    0.335640
    7   N7         2.165899569     0.356883494    -0.043377766     N.3   1  noname   -0.890623
    8   H8        -2.290633041     1.402358499    -0.439176892       H   1  noname    0.189251
    9   H9         0.127862400     1.998878346    -0.686024844       H   1  noname    0.142666
   10   H10        1.071876323    -1.950096168     0.755748899       H   1  noname    0.097105
   11   H11       -2.899976412    -0.872857348     0.409695011       H   1  noname    0.060450
   12   H12        2.755942934    -0.464164273    -0.131707050       H   1  noname    0.368282
   13   H13        2.411036377     1.043901845    -0.748649287       H   1  noname    0.377940


@<TRIPOS>BOND
    1      1      2    2
    2      2      3    1
    3      3      4    2
    4      4      5    1
    5      5      6    2
    6      3      7    1
    7      6      1    1
    8      1      8    1
    9      2      9    1
   10      4     10    1
   11      6     11    1
   12      7     12    1
   13      7     13    1
#
#	File Created by: Spartan'20 Export
#

@<TRIPOS>MOLECULE
M0372
11 11
SMALL
USER_CHARGES


@<TRIPOS>ATOM
    1   C1        -0.000015756     0.000000000     1.209217826     C.2   1  noname    0.243326
    2   C2        -1.206150615     0.000000000     0.509928008     C.2   1  noname   -0.654512
    3   C3        -1.120847418     0.000000000    -0.878187303     C.2   1  noname    0.821852
    4   N4         0.000014443     0.000000000    -1.582238713     N.2   1  noname   -0.681177
    5   C5         1.120876141     0.000000000    -0.878203178     C.2   1  noname    0.821860
    6   C6         1.206133911     0.000000000     0.509907620     C.2   1  noname   -0.654532
    7   F7         2.259756462     0.000000000    -1.596372548       F   1  noname   -0.263740
    8   F8        -2.259754468     0.000000000    -1.596347288       F   1  noname   -0.263750
    9   H9         0.000008036     0.000000000     2.295392405       H   1  noname    0.132279
   10   H10       -2.170834795     0.000000000     1.003448029       H   1  noname    0.249200
   11   H11        2.170814059     0.000000000     1.003455142       H   1  noname    0.249194


@<TRIPOS>BOND
    1      1      2    2
    2      2      3    1
    3      3      4    2
    4      4      5    1
    5      5      6    2
    6      5      7    1
    7      3      8    1
    8      6      1    1
    9      1      9    1
   10      2     10    1
   11      6     11    1
#
#	File Created by: Spartan'20 Export
#

@<TRIPOS>MOLECULE
M0373
22 24
SMALL
USER_CHARGES


@<TRIPOS>ATOM
    1   C1        -0.360674816     0.000000000    -3.386756073     C.2   1  noname   -0.391710
    2   C2         0.856718508     0.000000000    -2.734415007     C.2   1  noname    0.004035
    3   C3         0.882692116     0.000000000    -1.323064179     C.2   1  noname   -0.153612
    4   C4         2.104754490     0.000000000    -0.574186267     C.2   1  noname   -0.108639
    5   C5         2.085588950     0.000000000     0.791606160     C.2   1  noname   -0.505909
    6   C6         0.846486877     0.000000000     1.511301016     C.2   1  noname    0.818175
    7   C7        -0.383441944     0.000000000     0.803520185     C.2   1  noname   -0.561675
    8   C8        -0.364865116     0.000000000    -0.641765275     C.2   1  noname    0.633798
    9   N9        -1.560855054     0.000000000    -1.288763865     N.2   1  noname   -0.611577
   10   C10       -1.542221305     0.000000000    -2.620388266     C.2   1  noname    0.292101
   11   C11       -1.580790088     0.000000000     1.546604422     C.2   1  noname    0.281461
   12   C12       -1.500432810     0.000000000     2.925832486     C.2   1  noname   -0.555229
   13   C13       -0.232525036     0.000000000     3.541428728     C.2   1  noname    0.432610
   14   N14        0.918879558     0.000000000     2.873195854     N.2   1  noname   -0.726690
   15   H15       -0.416910923     0.000000000    -4.472028987       H   1  noname    0.179205
   16   H16        1.792636904     0.000000000    -3.291009058       H   1  noname    0.139243
   17   H17        3.050016915     0.000000000    -1.114826373       H   1  noname    0.164702
   18   H18        3.000707460     0.000000000     1.378625208       H   1  noname    0.227490
   19   H19       -2.514818514     0.000000000    -3.111061678       H   1  noname    0.087897
   20   H20       -2.530695481     0.000000000     1.019996860       H   1  noname    0.088977
   21   H21       -2.398470416     0.000000000     3.538142807       H   1  noname    0.198314
   22   H22       -0.151780274     0.000000000     4.628011302       H   1  noname    0.067032


@<TRIPOS>BOND
    1      1      2    2
    2      2      3    1
    3      3      4    2
    4      4      5    1
    5      5      6    2
    6      6      7    1
    7      7      8    2
    8      8      9    1
    9      9     10    2
   10      7     11    1
   11     11     12    2
   12     12     13    1
   13     13     14    2
   14     10      1    1
   15      8      3    1
   16     14      6    1
   17      1     15    1
   18      2     16    1
   19      4     17    1
   20      5     18    1
   21     10     19    1
   22     11     20    1
   23     12     21    1
   24     13     22    1
#
#	File Created by: Spartan'20 Export
#

@<TRIPOS>MOLECULE
M0374
26 29
SMALL
USER_CHARGES


@<TRIPOS>ATOM
    1   C1         0.000070478     0.000000000    -3.520641152     C.2   1  noname    0.022187
    2   C2        -1.211551983     0.000000000    -2.830057665     C.2   1  noname   -0.413804
    3   C3        -1.236485518     0.000000000    -1.426088819     C.2   1  noname    0.315723
    4   C4        -2.462369146     0.000000000    -0.683496493     C.2   1  noname   -0.292719
    5   C5        -2.462387938     0.000000000     0.683753325     C.2   1  noname   -0.292772
    6   C6        -1.236536101     0.000000000     1.426144959     C.2   1  noname    0.315809
    7   C7        -1.211647629     0.000000000     2.830140308     C.2   1  noname   -0.413806
    8   C8        -0.000087763     0.000000000     3.520631940     C.2   1  noname    0.022227
    9   C9         1.211500893     0.000000000     2.830062167     C.2   1  noname   -0.413802
   10   C10        1.236488648     0.000000000     1.426083981     C.2   1  noname    0.315731
   11   C11       -0.000029586     0.000000000     0.710856597     C.2   1  noname   -0.102795
   12   C12        0.000011366     0.000000000    -0.710941271     C.2   1  noname   -0.102783
   13   C13        1.236560645     0.000000000    -1.426250234     C.2   1  noname    0.315831
   14   C14        1.211706692     0.000000000    -2.830131298     C.2   1  noname   -0.413813
   15   C15        2.462384226     0.000000000    -0.683716736     C.2   1  noname   -0.292772
   16   C16        2.462298709     0.000000000     0.683475198     C.2   1  noname   -0.292689
   17   H17        0.000065622     0.000000000    -4.608367151       H   1  noname    0.125892
   18   H18       -2.152449151     0.000000000    -3.378601960       H   1  noname    0.188685
   19   H19       -3.403659738     0.000000000    -1.231533266       H   1  noname    0.179427
   20   H20       -3.403740619     0.000000000     1.231741476       H   1  noname    0.179453
   21   H21       -2.152497792     0.000000000     3.378757169       H   1  noname    0.188694
   22   H22       -0.000031870     0.000000000     4.608357203       H   1  noname    0.125883
   23   H23        2.152321853     0.000000000     3.378801537       H   1  noname    0.188672
   24   H24        2.152558933     0.000000000    -3.378784514       H   1  noname    0.188704
   25   H25        3.403785946     0.000000000    -1.231567445       H   1  noname    0.179441
   26   H26        3.403720824     0.000000000     1.231372146       H   1  noname    0.179395


@<TRIPOS>BOND
    1      1      2    2
    2      2      3    1
    3      3      4    2
    4      4      5    1
    5      5      6    2
    6      6      7    1
    7      7      8    2
    8      8      9    1
    9      9     10    2
   10     10     11    1
   11     11     12    2
   12     12     13    1
   13     13     14    2
   14     13     15    1
   15     15     16    2
   16     14      1    1
   17     12      3    1
   18     11      6    1
   19     16     10    1
   20      1     17    1
   21      2     18    1
   22      4     19    1
   23      5     20    1
   24      7     21    1
   25      8     22    1
   26      9     23    1
   27     14     24    1
   28     15     25    1
   29     16     26    1
#
#	File Created by: Spartan'20 Export
#

@<TRIPOS>MOLECULE
M0375
10 10
SMALL
USER_CHARGES


@<TRIPOS>ATOM
    1   C1         0.709266635     0.000000000     0.963797109     C.2   1  noname   -0.194432
    2   C2        -0.709263764     0.000000000     0.963795816     C.2   1  noname   -0.194445
    3   C3        -1.125719085     0.000000000    -0.354845934     C.2   1  noname   -0.210041
    4   N4         0.000006215     0.000000000    -1.141019676   N.pl3   1  noname   -0.187953
    5   C5         1.125737449     0.000000000    -0.354846232     C.2   1  noname   -0.210053
    6   H6         1.358871205     0.000000000     1.829016306       H   1  noname    0.158464
    7   H7        -1.358888469     0.000000000     1.828997232       H   1  noname    0.158466
    8   H8        -2.114608623     0.000000000    -0.791533617       H   1  noname    0.184175
    9   H9        -0.000026296     0.000000000    -2.151814034       H   1  noname    0.311640
   10   H10        2.114624735     0.000000000    -0.791546970       H   1  noname    0.184180


@<TRIPOS>BOND
    1      1      2    1
    2      2      3    2
    3      3      4    1
    4      4      5    1
    5      5      1    2
    6      1      6    1
    7      2      7    1
    8      3      8    1
    9      4      9    1
   10      5     10    1
#
#	File Created by: Spartan'20 Export
#

@<TRIPOS>MOLECULE
M0376
18 18
SMALL
USER_CHARGES


@<TRIPOS>ATOM
    1   C1        -0.054500381     0.000000000    -2.941679577     C.2   1  noname   -0.144832
    2   C2         1.114157628     0.000000000    -2.173039646     C.2   1  noname   -0.101450
    3   C3         1.043496685     0.000000000    -0.782680520     C.2   1  noname   -0.256864
    4   C4        -0.203313321     0.000000000    -0.130776593     C.2   1  noname    0.273071
    5   C5        -1.369936149     0.000000000    -0.915332421     C.2   1  noname   -0.264051
    6   C6        -1.297890686     0.000000000    -2.307443018     C.2   1  noname   -0.091808
    7   C7        -0.345367338     0.000000000     1.323585318     C.2   1  noname   -0.161212
    8   C8         0.638687567     0.000000000     2.248561483     C.2   1  noname   -0.350540
    9   C9         0.307506829     0.000000000     3.685350832     C.2   1  noname    0.515498
   10   O10       -0.837654250     0.000000000     4.134894819     O.2   1  noname   -0.524416
   11   H11        0.006192610     0.000000000    -4.027166783       H   1  noname    0.141203
   12   H12        2.085305319     0.000000000    -2.662007519       H   1  noname    0.133736
   13   H13        1.963464484     0.000000000    -0.203161261       H   1  noname    0.171619
   14   H14       -2.340225498     0.000000000    -0.421764379       H   1  noname    0.159215
   15   H15       -2.211659388     0.000000000    -2.896395348       H   1  noname    0.135525
   16   H16       -1.365632914     0.000000000     1.710974157       H   1  noname    0.190882
   17   H17        1.693113172     0.000000000     1.983080082       H   1  noname    0.154129
   18   H18        1.174255631     0.000000000     4.375000374       H   1  noname    0.020295


@<TRIPOS>BOND
    1      1      2    2
    2      2      3    1
    3      3      4    2
    4      4      5    1
    5      5      6    2
    6      4      7    1
    7      7      8    2
    8      8      9    1
    9      9     10    2
   10      6      1    1
   11      1     11    1
   12      2     12    1
   13      3     13    1
   14      5     14    1
   15      6     15    1
   16      7     16    1
   17      8     17    1
   18      9     18    1
#
#	File Created by: Spartan'20 Export
#

@<TRIPOS>MOLECULE
M0377
25 26
SMALL
USER_CHARGES


@<TRIPOS>ATOM
    1   C1        -0.194479920    -0.006998656     4.603367335     C.2   1  noname   -0.150775
    2   C2         1.018914993    -0.430403166     4.058003966     C.2   1  noname   -0.075306
    3   C3         1.189177515    -0.454765751     2.673634405     C.2   1  noname   -0.287714
    4   C4         0.147233875    -0.055096245     1.825056053     C.2   1  noname    0.181265
    5   C5        -1.071780965     0.371460693     2.377713510     C.2   1  noname   -0.159050
    6   C6        -1.236465583     0.394868404     3.759235680     C.2   1  noname   -0.125340
    7   C7         0.349139124    -0.090859393     0.374359362     C.2   1  noname    0.139748
    8   N8        -0.571484523     0.279246632    -0.451423967     N.2   1  noname   -0.551129
    9   C9        -0.295396562     0.154250912    -1.831590859     C.2   1  noname    0.553499
   10   C10        0.268333194    -1.006376878    -2.383773440     C.2   1  noname   -0.378651
   11   C11        0.491405486    -1.084369134    -3.759466458     C.2   1  noname   -0.069808
   12   C12        0.155595206    -0.013009146    -4.589761296     C.2   1  noname   -0.219515
   13   C13       -0.420301140     1.136707955    -4.040323630     C.2   1  noname   -0.042473
   14   C14       -0.666202673     1.213600435    -2.671232131     C.2   1  noname   -0.383268
   15   H15       -0.329686737     0.012530239     5.682205611       H   1  noname    0.139870
   16   H16        1.830676598    -0.742102146     4.710272084       H   1  noname    0.127618
   17   H17        2.134982810    -0.782409399     2.245569668       H   1  noname    0.159757
   18   H18       -1.870085327     0.679621484     1.706439079       H   1  noname    0.142782
   19   H19       -2.181788613     0.725446599     4.184874237       H   1  noname    0.136640
   20   H20        1.331538810    -0.442538796     0.023015805       H   1  noname    0.084599
   21   H21        0.493088126    -1.853145993    -1.739320186       H   1  noname    0.179348
   22   H22        0.918566184    -1.990143957    -4.184396751       H   1  noname    0.135035
   23   H23        0.330295107    -0.077552140    -5.660807648       H   1  noname    0.144108
   24   H24       -0.695067850     1.968943503    -4.684345796       H   1  noname    0.128542
   25   H25       -1.126207134     2.093093944    -2.227304632       H   1  noname    0.190218


@<TRIPOS>BOND
    1      1      2    2
    2      2      3    1
    3      3      4    2
    4      4      5    1
    5      5      6    2
    6      4      7    1
    7      7      8    2
    8      8      9    1
    9      9     10    2
   10     10     11    1
   11     11     12    2
   12     12     13    1
   13     13     14    2
   14      6      1    1
   15     14      9    1
   16      1     15    1
   17      2     16    1
   18      3     17    1
   19      5     18    1
   20      6     19    1
   21      7     20    1
   22     10     21    1
   23     11     22    1
   24     12     23    1
   25     13     24    1
   26     14     25    1
#
#	File Created by: Spartan'20 Export
#

@<TRIPOS>MOLECULE
M0378
13 13
SMALL
USER_CHARGES


@<TRIPOS>ATOM
    1   C1        -0.000013738     0.000000000    -1.731618971     C.2   1  noname   -0.101856
    2   C2        -1.210568374     0.000000000    -1.033533581     C.2   1  noname   -0.126611
    3   C3        -1.218630930     0.000000000     0.360431959     C.2   1  noname   -0.198830
    4   C4         0.000261209     0.000000000     1.055912800     C.2   1  noname    0.161061
    5   C5         1.219016470     0.000000000     0.360156524     C.2   1  noname   -0.198892
    6   C6         1.210657591     0.000000000    -1.033805700     C.2   1  noname   -0.126568
    7   C7        -0.000025297     0.000000000     2.492164207     C.1   1  noname    0.202243
    8   N8        -0.001117342     0.000000000     3.675932931     N.1   1  noname   -0.394642
    9   H9        -0.000116869     0.000000000    -2.818704330       H   1  noname    0.140526
   10   H10       -2.152456496     0.000000000    -1.575868418       H   1  noname    0.143807
   11   H11       -2.154557268     0.000000000     0.912905433       H   1  noname    0.177988
   12   H12        2.155122835     0.000000000     0.912363493       H   1  noname    0.177972
   13   H13        2.152428208     0.000000000    -1.576336347       H   1  noname    0.143802


@<TRIPOS>BOND
    1      1      2    2
    2      2      3    1
    3      3      4    2
    4      4      5    1
    5      5      6    2
    6      4      7    1
    7      7      8    3
    8      6      1    1
    9      1      9    1
   10      2     10    1
   11      3     11    1
   12      5     12    1
   13      6     13    1
#
#	File Created by: Spartan'20 Export
#

@<TRIPOS>MOLECULE
M0379
16 16
SMALL
USER_CHARGES


@<TRIPOS>ATOM
    1   C1        -2.297053720     0.074891131    -0.477593641     C.2   1  noname   -0.106361
    2   C2        -1.443849360     1.174748568    -0.592549269     C.2   1  noname   -0.162781
    3   C3        -0.100960083     1.064058839    -0.227155744     C.2   1  noname   -0.148752
    4   C4         0.390742264    -0.154079947     0.259625098     C.2   1  noname    0.006157
    5   C5        -0.470516755    -1.249884687     0.394589539     C.2   1  noname   -0.182298
    6   C6        -1.808310181    -1.135858541     0.020806980     C.2   1  noname   -0.104763
    7   C7         1.816037235    -0.340767258     0.676309839     C.2   1  noname    0.707665
    8   O8         2.153547038    -1.182282900     1.510073743     O.2   1  noname   -0.584479
    9   N9         2.721423417     0.513130001     0.086671968    N.am   1  noname   -0.926498
   10   H10       -3.341542372     0.164094488    -0.765445829       H   1  noname    0.134598
   11   H11       -1.826365975     2.123820683    -0.959779323       H   1  noname    0.141652
   12   H12        0.547581297     1.935126409    -0.280991192       H   1  noname    0.146252
   13   H13       -0.073246623    -2.176658444     0.798646188       H   1  noname    0.159040
   14   H14       -2.472544873    -1.990587263     0.119975501       H   1  noname    0.131148
   15   H15        3.693322885     0.286617913     0.262499092       H   1  noname    0.413680
   16   H16        2.511735807     0.893631007    -0.825682949       H   1  noname    0.375742


@<TRIPOS>BOND
    1      1      2    2
    2      2      3    1
    3      3      4    2
    4      4      5    1
    5      5      6    2
    6      4      7    1
    7      7      8    2
    8      7      9    am
    9      6      1    1
   10      1     10    1
   11      2     11    1
   12      3     12    1
   13      5     13    1
   14      6     14    1
   15      9     15    1
   16      9     16    1
#
#	File Created by: Spartan'20 Export
#

@<TRIPOS>MOLECULE
M0380
24 25
SMALL
USER_CHARGES


@<TRIPOS>ATOM
    1   C1         3.778103071     0.113398776     0.713936096     C.2   1  noname   -0.110691
    2   C2         3.652497695    -0.510847874    -0.531093365     C.2   1  noname   -0.128027
    3   C3         2.417102049    -0.546796347    -1.172699370     C.2   1  noname   -0.193427
    4   C4         1.290236864     0.020998398    -0.560803218     C.2   1  noname    0.088285
    5   C5         1.417874101     0.651629725     0.685885773     C.2   1  noname   -0.159858
    6   C6         2.662984916     0.702297792     1.314109491     C.2   1  noname   -0.156467
    7   C7        -0.000003122    -0.001359493    -1.312182791     C.2   1  noname    0.382706
    8   O8        -0.000017749    -0.002109458    -2.548311543     O.2   1  noname   -0.502101
    9   C9        -1.290267748    -0.022509054    -0.560826171     C.2   1  noname    0.088322
   10   C10       -1.418621466    -0.653281156     0.685734191     C.2   1  noname   -0.159870
   11   C11       -2.663703690    -0.702442380     1.314126187     C.2   1  noname   -0.156293
   12   C12       -3.778033251    -0.111727116     0.714335827     C.2   1  noname   -0.110886
   13   C13       -3.651731362     0.512622637    -0.530585608     C.2   1  noname   -0.128012
   14   C14       -2.416406744     0.546954924    -1.172430211     C.2   1  noname   -0.193449
   15   H15        4.744576842     0.146506888     1.211501213       H   1  noname    0.138090
   16   H16        4.521447550    -0.963884802    -1.002113547       H   1  noname    0.137846
   17   H17        2.302871349    -1.006997665    -2.150609006       H   1  noname    0.172365
   18   H18        0.555161808     1.124967624     1.147194550       H   1  noname    0.129548
   19   H19        2.763407941     1.203507028     2.273823517       H   1  noname    0.142032
   20   H20       -0.556479326    -1.127961408     1.146795677       H   1  noname    0.129527
   21   H21       -2.764667843    -1.203785902     2.273716390       H   1  noname    0.142030
   22   H22       -4.744465847    -0.143510487     1.212064419       H   1  noname    0.138150
   23   H23       -4.520111529     0.967078623    -1.001328099       H   1  noname    0.137818
   24   H24       -2.301754509     1.007250724    -2.150240405       H   1  noname    0.172363


@<TRIPOS>BOND
    1      1      2    2
    2      2      3    1
    3      3      4    2
    4      4      5    1
    5      5      6    2
    6      4      7    1
    7      7      8    2
    8      7      9    1
    9      9     10    2
   10     10     11    1
   11     11     12    2
   12     12     13    1
   13     13     14    2
   14      6      1    1
   15     14      9    1
   16      1     15    1
   17      2     16    1
   18      3     17    1
   19      5     18    1
   20      6     19    1
   21     10     20    1
   22     11     21    1
   23     12     22    1
   24     13     23    1
   25     14     24    1
#
#	File Created by: Spartan'20 Export
#

@<TRIPOS>MOLECULE
M0381
23 24
SMALL
USER_CHARGES


@<TRIPOS>ATOM
    1   C1        -3.657943742     0.449728152     0.599112523     C.2   1  noname   -0.093425
    2   C2        -3.524930006    -0.707684025    -0.174863691     C.2   1  noname   -0.127640
    3   C3        -2.281782023    -1.063882630    -0.691074034     C.2   1  noname   -0.186233
    4   C4        -1.155776384    -0.273872170    -0.415553422     C.2   1  noname    0.054370
    5   C5        -1.289634553     0.889718004     0.357141489     C.2   1  noname   -0.119391
    6   C6        -2.542557318     1.250642878     0.854420882     C.2   1  noname   -0.180460
    7   C7         0.142778175    -0.673471775    -1.026791810     C.2   1  noname    0.437673
    8   O8         0.175217073    -1.320912586    -2.078294102     O.2   1  noname   -0.505693
    9   C9         1.423901914    -0.289253179    -0.359242286     C.2   1  noname   -0.273821
   10   C10        2.560437490    -0.088718260    -1.150910431     C.2   1  noname    0.151349
   11   C11        3.762628877     0.216920652    -0.522880831     C.2   1  noname   -0.499410
   12   C12        3.793044707     0.286469591     0.872734217     C.2   1  noname    0.440246
   13   N13        2.720579373     0.065325385     1.653326213     N.2   1  noname   -0.660438
   14   C14        1.559548569    -0.211535797     1.033900937     C.2   1  noname    0.420172
   15   H15       -4.630172255     0.729241598     0.997334081       H   1  noname    0.136595
   16   H16       -4.393760815    -1.329163479    -0.377126479       H   1  noname    0.136673
   17   H17       -2.160908243    -1.948851646    -1.310230361       H   1  noname    0.172210
   18   H18       -0.427865223     1.524960923     0.543885221       H   1  noname    0.117292
   19   H19       -2.648101531     2.158950352     1.442464801       H   1  noname    0.148398
   20   H20        2.481120440    -0.178643042    -2.231345447       H   1  noname    0.135436
   21   H21        4.667036607     0.394262990    -1.098368000       H   1  noname    0.193221
   22   H22        4.717518744     0.522953589     1.396221670       H   1  noname    0.060583
   23   H23        0.709620125    -0.403185527     1.686138860       H   1  noname    0.042295


@<TRIPOS>BOND
    1      1      2    2
    2      2      3    1
    3      3      4    2
    4      4      5    1
    5      5      6    2
    6      4      7    1
    7      7      8    2
    8      7      9    1
    9      9     10    2
   10     10     11    1
   11     11     12    2
   12     12     13    1
   13     13     14    2
   14      6      1    1
   15     14      9    1
   16      1     15    1
   17      2     16    1
   18      3     17    1
   19      5     18    1
   20      6     19    1
   21     10     20    1
   22     11     21    1
   23     12     22    1
   24     14     23    1
#
#	File Created by: Spartan'20 Export
#

@<TRIPOS>MOLECULE
M0382
31 33
SMALL
USER_CHARGES


@<TRIPOS>ATOM
    1   C1         0.031326504    -0.000035317     4.089991062     C.2   1  noname   -0.197215
    2   C2        -1.189445501     0.000135104     3.416914530     C.2   1  noname   -0.046547
    3   C3        -1.227368888     0.000150105     2.019613180     C.2   1  noname   -0.266259
    4   C4        -0.047657351     0.000032067     1.260980867     C.2   1  noname   -0.032852
    5   C5         1.173793866    -0.000119238     1.957267056     C.2   1  noname   -0.266792
    6   C6         1.216282708    -0.000137856     3.350875179     C.2   1  noname   -0.056992
    7   C7        -0.044729234     0.000014930    -0.257159834     C.3   1  noname    0.719614
    8   C8        -1.454645888     0.000149174    -0.866140966     C.3   1  noname   -0.254707
    9   C9        -1.341231450    -0.000284103    -2.415479346     C.3   1  noname   -0.066228
   10   N10        0.050267827    -0.000005566    -2.876070484     N.3   1  noname   -0.547526
   11   C11        0.718152936    -1.193315337    -2.344464098     C.3   1  noname   -0.017299
   12   C12        0.683935513    -1.248100525    -0.792986756     C.3   1  noname   -0.346978
   13   C13        0.717642765     1.193610213    -2.344512329     C.3   1  noname   -0.016820
   14   C14        0.684274854     1.247935611    -0.793003926     C.3   1  noname   -0.347057
   15   H15        0.060898253    -0.000070405     5.176813444       H   1  noname    0.136580
   16   H16       -2.121114336     0.000243621     3.978461744       H   1  noname    0.117266
   17   H17       -2.194761367     0.000311869     1.527707292       H   1  noname    0.127603
   18   H18        2.111684174    -0.000178313     1.406781336       H   1  noname    0.142309
   19   H19        2.177352190    -0.000245857     3.860392352       H   1  noname    0.118424
   20   H20       -2.006337575     0.882788049    -0.520832911       H   1  noname    0.064887
   21   H21       -2.006673424    -0.882098915    -0.520398145       H   1  noname    0.064793
   22   H22       -1.831799460     0.880547244    -2.844447859       H   1  noname    0.111987
   23   H23       -1.831239863    -0.881687940    -2.843916588       H   1  noname    0.112337
   24   H24        1.749512095    -1.186388657    -2.714991397       H   1  noname    0.102909
   25   H25        0.225617400    -2.069460794    -2.780838078       H   1  noname    0.110687
   26   H26        0.161728562    -2.143861430    -0.434173100       H   1  noname    0.072188
   27   H27        1.699096898    -1.289948182    -0.383112306       H   1  noname    0.088053
   28   H28        1.748792002     1.187545582    -2.715628820       H   1  noname    0.102735
   29   H29        0.224204106     2.069509616    -2.780353090       H   1  noname    0.110687
   30   H30        0.162765535     2.143882701    -0.433640047       H   1  noname    0.072140
   31   H31        1.699676149     1.289082547    -0.383647961       H   1  noname    0.088074


@<TRIPOS>BOND
    1      1      2    2
    2      2      3    1
    3      3      4    2
    4      4      5    1
    5      5      6    2
    6      4      7    1
    7      7      8    1
    8      8      9    1
    9      9     10    1
   10     10     11    1
   11     11     12    1
   12     10     13    1
   13     13     14    1
   14      6      1    1
   15     12      7    1
   16     14      7    1
   17      1     15    1
   18      2     16    1
   19      3     17    1
   20      5     18    1
   21      6     19    1
   22      8     20    1
   23      8     21    1
   24      9     22    1
   25      9     23    1
   26     11     24    1
   27     11     25    1
   28     12     26    1
   29     12     27    1
   30     13     28    1
   31     13     29    1
   32     14     30    1
   33     14     31    1
#
#	File Created by: Spartan'20 Export
#

@<TRIPOS>MOLECULE
M0383
22 23
SMALL
USER_CHARGES


@<TRIPOS>ATOM
    1   C1         3.503290819    -0.254833624     0.401467577     C.2   1  noname   -0.109080
    2   C2         2.821158827    -1.359042185    -0.121144337     C.2   1  noname   -0.165160
    3   C3         1.439843288    -1.318824689    -0.285104083     C.2   1  noname   -0.054157
    4   C4         0.718004477    -0.167557392     0.072914153     C.2   1  noname   -0.081385
    5   C5         1.407070095     0.937579273     0.593970446     C.2   1  noname   -0.146279
    6   C6         2.792151133     0.891005200     0.760626188     C.2   1  noname   -0.139966
    7   C7        -0.744150178    -0.134362430    -0.102430924     C.2   1  noname    0.434094
    8   N8        -1.405186208    -1.194861501    -0.439768959     N.2   1  noname   -0.580913
    9   C9        -2.836412243    -0.852135071    -0.476745150     C.3   1  noname    0.174595
   10   C10       -2.915573000     0.684098802    -0.509916034     C.3   1  noname   -0.376027
   11   C11       -1.593021175     1.101502342     0.142665812     C.3   1  noname   -0.053156
   12   H12        4.582942830    -0.289273199     0.527956056       H   1  noname    0.130336
   13   H13        3.371807643    -2.253636456    -0.403132385       H   1  noname    0.136979
   14   H14        0.894013845    -2.168542882    -0.685994206       H   1  noname    0.114097
   15   H15        0.863989155     1.834720222     0.881163360       H   1  noname    0.112664
   16   H16        3.316057647     1.751928308     1.169592862       H   1  noname    0.132882
   17   H17       -3.304575535    -1.267962026     0.425146194       H   1  noname    0.054173
   18   H18       -3.308849665    -1.333117143    -1.338399174       H   1  noname    0.053991
   19   H19       -2.943131253     1.031433733    -1.547306758       H   1  noname    0.130342
   20   H20       -3.796992733     1.080317909     0.001815597       H   1  noname    0.109257
   21   H21       -1.161771242     2.009341593    -0.289925570       H   1  noname    0.056862
   22   H22       -1.700666525     1.272221214     1.222549334       H   1  noname    0.065851


@<TRIPOS>BOND
    1      1      2    2
    2      2      3    1
    3      3      4    2
    4      4      5    1
    5      5      6    2
    6      4      7    1
    7      7      8    2
    8      8      9    1
    9      9     10    1
   10     10     11    1
   11      6      1    1
   12     11      7    1
   13      1     12    1
   14      2     13    1
   15      3     14    1
   16      5     15    1
   17      6     16    1
   18      9     17    1
   19      9     18    1
   20     10     19    1
   21     10     20    1
   22     11     21    1
   23     11     22    1
#
#	File Created by: Spartan'20 Export
#

@<TRIPOS>MOLECULE
M0384
14 14
SMALL
USER_CHARGES


@<TRIPOS>ATOM
    1   C1        -0.349657081     0.000000000    -1.885032094     C.2   1  noname   -0.124955
    2   C2        -1.414710129     0.000000000    -0.976808522     C.2   1  noname   -0.129738
    3   C3        -1.165723869     0.000000000     0.392821646     C.2   1  noname   -0.160951
    4   C4         0.156919565     0.000000000     0.855825256     C.2   1  noname    0.119878
    5   C5         1.222876948     0.000000000    -0.050624073     C.2   1  noname   -0.263297
    6   C6         0.968400001     0.000000000    -1.422439604     C.2   1  noname   -0.085434
    7   C7         0.432052520     0.000000000     2.309848873     C.2   1  noname    0.312213
    8   O8        -0.436039465     0.000000000     3.177542265     O.2   1  noname   -0.467988
    9   H9        -0.548667827     0.000000000    -2.954019204       H   1  noname    0.140465
   10   H10       -2.438488390     0.000000000    -1.342609225       H   1  noname    0.139053
   11   H11       -1.974973019     0.000000000     1.118652116       H   1  noname    0.164054
   12   H12        2.247488106     0.000000000     0.318927522       H   1  noname    0.159263
   13   H13        1.793698939     0.000000000    -2.130008251       H   1  noname    0.131801
   14   H14        1.506823701     0.000000000     2.587923297       H   1  noname    0.065636


@<TRIPOS>BOND
    1      1      2    2
    2      2      3    1
    3      3      4    2
    4      4      5    1
    5      5      6    2
    6      4      7    1
    7      7      8    2
    8      6      1    1
    9      1      9    1
   10      2     10    1
   11      3     11    1
   12      5     12    1
   13      6     13    1
   14      7     14    1
#
#	File Created by: Spartan'20 Export
#

@<TRIPOS>MOLECULE
M0385
20 20
SMALL
USER_CHARGES


@<TRIPOS>ATOM
    1   C1         2.776042648     0.072170273     0.804864311     C.2   1  noname   -0.195092
    2   C2         1.971532887     1.198808681     0.617914342     C.2   1  noname   -0.073988
    3   C3         0.731571111     1.082877667    -0.011544976     C.2   1  noname   -0.319819
    4   C4         0.275972013    -0.161897418    -0.467414383     C.2   1  noname    0.380856
    5   C5         1.091578686    -1.284890662    -0.274348921     C.2   1  noname   -0.328210
    6   C6         2.331948332    -1.172925910     0.356829155     C.2   1  noname   -0.083254
    7   C7        -1.074629843    -0.311087413    -1.117477189     C.3   1  noname   -0.554548
    8   C8        -2.225368950    -0.348832574    -0.106577713     C.3   1  noname    0.471880
    9   N9        -2.400406488     0.967083352     0.514719491     N.3   1  noname   -0.908092
   10   H10        3.743187601     0.165034117     1.293448945       H   1  noname    0.137898
   11   H11        2.311151180     2.172402080     0.964440820       H   1  noname    0.126041
   12   H12        0.100953930     1.957901280    -0.138875682       H   1  noname    0.168460
   13   H13        0.753881723    -2.258447501    -0.628244959       H   1  noname    0.159534
   14   H14        2.952536955    -2.055818735     0.493171890       H   1  noname    0.127886
   15   H15       -1.093715755    -1.236097147    -1.707325243       H   1  noname    0.125571
   16   H16       -1.251377338     0.512873746    -1.821870027       H   1  noname    0.164472
   17   H17       -3.132505939    -0.724105472    -0.609708765       H   1  noname   -0.064164
   18   H18       -1.975967117    -1.064521514     0.683931533       H   1  noname    0.006063
   19   H19       -2.848588797     1.594537885    -0.152284782       H   1  noname    0.339749
   20   H20       -3.037796838     0.894935263     1.306352153       H   1  noname    0.318755


@<TRIPOS>BOND
    1      1      2    2
    2      2      3    1
    3      3      4    2
    4      4      5    1
    5      5      6    2
    6      4      7    1
    7      7      8    1
    8      8      9    1
    9      6      1    1
   10      1     10    1
   11      2     11    1
   12      3     12    1
   13      5     13    1
   14      6     14    1
   15      7     15    1
   16      7     16    1
   17      8     17    1
   18      8     18    1
   19      9     19    1
   20      9     20    1
#
#	File Created by: Spartan'20 Export
#

@<TRIPOS>MOLECULE
M0386
19 19
SMALL
USER_CHARGES


@<TRIPOS>ATOM
    1   C1         2.686275693     0.529219975     0.053517737     C.2   1  noname   -0.161940
    2   C2         2.082528200    -0.429184719     0.870889272     C.2   1  noname   -0.103497
    3   C3         0.763870716    -0.822261942     0.639091707     C.2   1  noname   -0.291628
    4   C4         0.028583516    -0.265129528    -0.416506241     C.2   1  noname    0.341676
    5   C5         0.643501904     0.695294569    -1.229583707     C.2   1  noname   -0.288490
    6   C6         1.962588151     1.091546309    -0.999351403     C.2   1  noname   -0.114347
    7   C7        -1.407406510    -0.657313974    -0.648510723     C.3   1  noname   -0.531712
    8   C8        -2.367070038     0.043178104     0.303659969     C.3   1  noname    0.314300
    9   O9        -2.115860817    -0.465793404     1.613811617     O.3   1  noname   -0.645960
   10   H10        3.715077523     0.832400593     0.233554029       H   1  noname    0.133201
   11   H11        2.641234689    -0.872844473     1.692119684       H   1  noname    0.128681
   12   H12        0.291655576    -1.559459890     1.282996332       H   1  noname    0.189293
   13   H13        0.086529345     1.132451702    -2.057751644       H   1  noname    0.153956
   14   H14        2.425658041     1.834929824    -1.644554568       H   1  noname    0.132927
   15   H15       -1.698098730    -0.414037441    -1.678141584       H   1  noname    0.139267
   16   H16       -1.536825922    -1.738496732    -0.521491814       H   1  noname    0.181392
   17   H17       -3.406225164    -0.156220650     0.000482697       H   1  noname    0.007961
   18   H18       -2.200181028     1.128937921     0.259291610       H   1  noname    0.020747
   19   H19       -2.595835146     0.092783757     2.246477028       H   1  noname    0.394173


@<TRIPOS>BOND
    1      1      2    2
    2      2      3    1
    3      3      4    2
    4      4      5    1
    5      5      6    2
    6      4      7    1
    7      7      8    1
    8      8      9    1
    9      6      1    1
   10      1     10    1
   11      2     11    1
   12      3     12    1
   13      5     13    1
   14      6     14    1
   15      7     15    1
   16      7     16    1
   17      8     17    1
   18      8     18    1
   19      9     19    1
#
#	File Created by: Spartan'20 Export
#

@<TRIPOS>MOLECULE
M0387
17 17
SMALL
USER_CHARGES


@<TRIPOS>ATOM
    1   C1         2.404595343     0.575933766    -0.102328212     C.2   1  noname   -0.190682
    2   C2         1.427209983     1.235707396    -0.853128226     C.2   1  noname   -0.110177
    3   C3         0.101717958     0.804261056    -0.816794386     C.2   1  noname   -0.202888
    4   C4        -0.264313463    -0.290777377    -0.022379490     C.2   1  noname    0.204091
    5   C5         0.718267012    -0.942653917     0.731258800     C.2   1  noname   -0.339143
    6   C6         2.046715772    -0.515330188     0.691416814     C.2   1  noname   -0.046896
    7   C7        -1.693934284    -0.777306080    -0.010538457     C.3   1  noname    0.115804
    8   N8        -2.625924511     0.356525299    -0.010511634     N.3   1  noname   -0.922132
    9   H9         3.437591458     0.914106875    -0.132362732       H   1  noname    0.137196
   10   H10        1.700773386     2.088221231    -1.470578363       H   1  noname    0.129973
   11   H11       -0.666168204     1.317200042    -1.389055622       H   1  noname    0.145161
   12   H12        0.441104081    -1.788157902     1.359231417       H   1  noname    0.154669
   13   H13        2.799072454    -1.028900905     1.284913007       H   1  noname    0.120650
   14   H14       -1.890258593    -1.356410179    -0.921281354       H   1  noname    0.064186
   15   H15       -1.824146903    -1.471778043     0.836327797       H   1  noname    0.024765
   16   H16       -2.527978557     0.867952637     0.864784988       H   1  noname    0.357441
   17   H17       -3.584322933     0.011406288    -0.038974346       H   1  noname    0.357981


@<TRIPOS>BOND
    1      1      2    2
    2      2      3    1
    3      3      4    2
    4      4      5    1
    5      5      6    2
    6      4      7    1
    7      7      8    1
    8      6      1    1
    9      1      9    1
   10      2     10    1
   11      3     11    1
   12      5     12    1
   13      6     13    1
   14      7     14    1
   15      7     15    1
   16      8     16    1
   17      8     17    1
#
#	File Created by: Spartan'20 Export
#

@<TRIPOS>MOLECULE
M0388
30 31
SMALL
USER_CHARGES


@<TRIPOS>ATOM
    1   C1         3.994438358    -0.761038569     0.147219415     C.2   1  noname   -0.106090
    2   C2         3.957401273     0.105480845    -0.948889078     C.2   1  noname   -0.173675
    3   C3         2.812786182     0.862381482    -1.200130440     C.2   1  noname   -0.201237
    4   C4         1.694802390     0.776880455    -0.358206351     C.2   1  noname    0.267483
    5   C5         1.744019824    -0.094881657     0.737856046     C.2   1  noname   -0.258416
    6   C6         2.887594880    -0.855511469     0.993318253     C.2   1  noname   -0.145559
    7   C7         0.440589617     1.555991534    -0.678775335     C.3   1  noname   -0.377331
    8   N8        -0.414341079     0.950637447    -1.713675686     N.3   1  noname   -0.583888
    9   C9        -0.857703934    -0.404206245    -1.373178487     C.3   1  noname   -0.330645
   10   C10       -1.821118726    -0.378811713    -0.210309351     C.2   1  noname    0.286895
   11   C11       -2.832110216     0.589479268    -0.155589342     C.2   1  noname   -0.183771
   12   C12       -3.746490821     0.597446507     0.898000802     C.2   1  noname   -0.160784
   13   C13       -3.667924422    -0.366946571     1.906394669     C.2   1  noname   -0.142224
   14   C14       -2.664693616    -1.335827886     1.857855507     C.2   1  noname   -0.134986
   15   C15       -1.745559202    -1.338299659     0.805156695     C.2   1  noname   -0.254745
   16   H16        4.886522890    -1.350458089     0.346414922       H   1  noname    0.125996
   17   H17        4.820921413     0.191288574    -1.604759539       H   1  noname    0.143859
   18   H18        2.793042771     1.546062322    -2.049087014       H   1  noname    0.146097
   19   H19        0.882980682    -0.164690480     1.400982894       H   1  noname    0.171559
   20   H20        2.913464153    -1.524487321     1.850770186       H   1  noname    0.138970
   21   H21       -0.168655128     1.672412496     0.224056302       H   1  noname    0.197935
   22   H22        0.703161258     2.562552644    -1.025809074       H   1  noname    0.160088
   23   H23        0.119507764     0.905654661    -2.584568271       H   1  noname    0.382254
   24   H24       -0.028075630    -1.091433327    -1.136648085       H   1  noname    0.171249
   25   H25       -1.364619192    -0.806803048    -2.259807633       H   1  noname    0.148200
   26   H26       -2.877548878     1.341463291    -0.939187270       H   1  noname    0.159037
   27   H27       -4.525846675     1.355491645     0.931731532       H   1  noname    0.140234
   28   H28       -4.381878136    -0.359818028     2.726684445       H   1  noname    0.133764
   29   H29       -2.594138491    -2.087363520     2.640919896       H   1  noname    0.138192
   30   H30       -0.960529311    -2.092645589     0.771259396       H   1  noname    0.141539


@<TRIPOS>BOND
    1      1      2    2
    2      2      3    1
    3      3      4    2
    4      4      5    1
    5      5      6    2
    6      4      7    1
    7      7      8    1
    8      8      9    1
    9      9     10    1
   10     10     11    2
   11     11     12    1
   12     12     13    2
   13     13     14    1
   14     14     15    2
   15      6      1    1
   16     15     10    1
   17      1     16    1
   18      2     17    1
   19      3     18    1
   20      5     19    1
   21      6     20    1
   22      7     21    1
   23      7     22    1
   24      8     23    1
   25      9     24    1
   26      9     25    1
   27     11     26    1
   28     12     27    1
   29     13     28    1
   30     14     29    1
   31     15     30    1
#
#	File Created by: Spartan'20 Export
#

@<TRIPOS>MOLECULE
M0389
16 16
SMALL
USER_CHARGES


@<TRIPOS>ATOM
    1   C1        -0.252515588     0.000444141    -2.204377836     C.2   1  noname   -0.099126
    2   C2        -0.124703402    -1.207983824    -1.514875336     C.2   1  noname   -0.152280
    3   C3         0.136777447    -1.204967628    -0.144319267     C.2   1  noname   -0.166840
    4   C4         0.281691847     0.003398544     0.551024013     C.2   1  noname    0.053781
    5   C5         0.143806082     1.210137502    -0.148060212     C.2   1  noname   -0.168720
    6   C6        -0.117204310     1.210169085    -1.518804279     C.2   1  noname   -0.150287
    7   C7         0.479357635     0.003468756     2.041443569     C.3   1  noname    0.011673
    8   O8        -0.769336177    -0.002537214     2.752297155     O.3   1  noname   -0.633057
    9   H9        -0.453329680    -0.000631114    -3.272706140       H   1  noname    0.126928
   10   H10       -0.225372402    -2.151296415    -2.045838719       H   1  noname    0.138664
   11   H11        0.239189966    -2.146260878     0.392947443       H   1  noname    0.143593
   12   H12        0.250661379     2.152483859     0.386422829       H   1  noname    0.144424
   13   H13       -0.212590701     2.152354880    -2.052720286       H   1  noname    0.138265
   14   H14        1.045027680     0.891513121     2.346790406       H   1  noname    0.097212
   15   H15        1.052767753    -0.880046840     2.345739682       H   1  noname    0.094520
   16   H16       -1.474227529    -0.030245974     2.085036979       H   1  noname    0.421252


@<TRIPOS>BOND
    1      1      2    2
    2      2      3    1
    3      3      4    2
    4      4      5    1
    5      5      6    2
    6      4      7    1
    7      7      8    1
    8      6      1    1
    9      1      9    1
   10      2     10    1
   11      3     11    1
   12      5     12    1
   13      6     13    1
   14      7     14    1
   15      7     15    1
   16      8     16    1
#
#	File Created by: Spartan'20 Export
#

@<TRIPOS>MOLECULE
M0390
29 30
SMALL
USER_CHARGES


@<TRIPOS>ATOM
    1   C1         3.765687287     0.380021980     1.161026994     C.2   1  noname   -0.125033
    2   C2         3.786881956     0.621818195    -0.216437978     C.2   1  noname   -0.155279
    3   C3         2.749445845     0.157547912    -1.024280530     C.2   1  noname   -0.229483
    4   C4         1.680132889    -0.555103825    -0.465468869     C.2   1  noname    0.314508
    5   C5         1.658019841    -0.781549998     0.914861523     C.2   1  noname   -0.233930
    6   C6         2.701011533    -0.324402438     1.725173751     C.2   1  noname   -0.154021
    7   C7         0.567208495    -1.047403636    -1.355053405     C.3   1  noname   -0.449574
    8   O8         0.000241264    -0.004186886    -2.154808872     O.3   1  noname   -0.213367
    9   C9        -0.567534197     1.042820924    -1.360426537     C.3   1  noname   -0.445260
   10   C10       -1.680528773     0.554037243    -0.468989744     C.2   1  noname    0.307551
   11   C11       -2.753968643    -0.153503335    -1.026248476     C.2   1  noname   -0.227200
   12   C12       -3.791139463    -0.615107912    -0.216492986     C.2   1  noname   -0.156326
   13   C13       -3.765179746    -0.376324494     1.161432016     C.2   1  noname   -0.123470
   14   C14       -2.696229122     0.322655682     1.724102332     C.2   1  noname   -0.155995
   15   C15       -1.653665550     0.777347559     0.911799128     C.2   1  noname   -0.230471
   16   H16        4.576241705     0.739828205     1.790369993       H   1  noname    0.133082
   17   H17        4.613817231     1.172528241    -0.658667519       H   1  noname    0.141098
   18   H18        2.755176536     0.350401320    -2.095194151       H   1  noname    0.178580
   19   H19        0.821072238    -1.320214603     1.356294003       H   1  noname    0.148737
   20   H20        2.677559845    -0.510214793     2.796589972       H   1  noname    0.142313
   21   H21       -0.208719202    -1.537912238    -0.750951388       H   1  noname    0.204703
   22   H22        0.941791651    -1.774387795    -2.082854581       H   1  noname    0.191022
   23   H23        0.208071759     1.536748259    -0.758390699       H   1  noname    0.203321
   24   H24       -0.942185300     1.766098147    -2.092125514       H   1  noname    0.190452
   25   H25       -2.763699173    -0.344056184    -2.097574741       H   1  noname    0.178564
   26   H26       -4.621470523    -1.161520026    -0.657598649       H   1  noname    0.141224
   27   H27       -4.575590114    -0.734012949     1.792138203       H   1  noname    0.132953
   28   H28       -2.669021767     0.506154846     2.795845211       H   1  noname    0.142632
   29   H29       -0.813428502     1.311892602     1.351931512       H   1  noname    0.148668


@<TRIPOS>BOND
    1      1      2    2
    2      2      3    1
    3      3      4    2
    4      4      5    1
    5      5      6    2
    6      4      7    1
    7      7      8    1
    8      8      9    1
    9      9     10    1
   10     10     11    2
   11     11     12    1
   12     12     13    2
   13     13     14    1
   14     14     15    2
   15      6      1    1
   16     15     10    1
   17      1     16    1
   18      2     17    1
   19      3     18    1
   20      5     19    1
   21      6     20    1
   22      7     21    1
   23      7     22    1
   24      9     23    1
   25      9     24    1
   26     11     25    1
   27     12     26    1
   28     13     27    1
   29     14     28    1
   30     15     29    1
#
#	File Created by: Spartan'20 Export
#

@<TRIPOS>MOLECULE
M0391
14 14
SMALL
USER_CHARGES


@<TRIPOS>ATOM
    1   C1        -0.021473310    -0.000002045    -1.891728139     C.2   1  noname   -0.209044
    2   C2        -0.028000804    -1.203911286    -1.184487285     C.2   1  noname   -0.078656
    3   C3        -0.048301131    -1.207257628     0.209494009     C.2   1  noname   -0.355375
    4   C4        -0.044799939     0.000003433     0.922858287     C.2   1  noname    0.497280
    5   C5        -0.048307054     1.207262358     0.209491212     C.2   1  noname   -0.355367
    6   C6        -0.027998337     1.203910712    -1.184489329     C.2   1  noname   -0.078662
    7   N7        -0.137775181     0.000012447     2.326656585     N.3   1  noname   -0.908311
    8   H8        -0.005424589    -0.000002825    -2.978234124       H   1  noname    0.136502
    9   H9        -0.023936818    -2.150952805    -1.719369576       H   1  noname    0.136515
   10   H10       -0.058530204    -2.150866279     0.752931024       H   1  noname    0.174914
   11   H11       -0.058546495     2.150871771     0.752926024       H   1  noname    0.174915
   12   H12       -0.023936642     2.150950621    -1.719375023       H   1  noname    0.136517
   13   H13        0.263562413     0.830035652     2.751660695       H   1  noname    0.364385
   14   H14        0.263468090    -0.830054127     2.751665640       H   1  noname    0.364386


@<TRIPOS>BOND
    1      1      2    2
    2      2      3    1
    3      3      4    2
    4      4      5    1
    5      5      6    2
    6      4      7    1
    7      6      1    1
    8      1      8    1
    9      2      9    1
   10      3     10    1
   11      5     11    1
   12      6     12    1
   13      7     13    1
   14      7     14    1
#
#	File Created by: Spartan'20 Export
#

@<TRIPOS>MOLECULE
M0392
14 14
SMALL
USER_CHARGES


@<TRIPOS>ATOM
    1   C1        -0.000010315     0.000000000    -1.909671355     C.2   1  noname   -0.117486
    2   C2        -1.210301494     0.000000000    -1.211122370     C.2   1  noname   -0.104769
    3   C3        -1.222734282     0.000000000     0.183791658     C.2   1  noname   -0.165826
    4   C4         0.000031739     0.000000000     0.850300143     C.2   1  noname    0.043869
    5   C5         1.222790829     0.000000000     0.183762955     C.2   1  noname   -0.165844
    6   C6         1.210288252     0.000000000    -1.211147625     C.2   1  noname   -0.104753
    7   N7        -0.000042527     0.000000000     2.321419641       N   1  noname    0.728088
    8   O8         1.100333572     0.000000000     2.898330534       O   1  noname   -0.446637
    9   O9        -1.100476713     0.000000000     2.898203279     O.2   1  noname   -0.446635
   10   H10       -0.000001442     0.000000000    -2.996537146       H   1  noname    0.147734
   11   H11       -2.152211816     0.000000000    -1.752904607       H   1  noname    0.139895
   12   H12       -2.147660765     0.000000000     0.749334076       H   1  noname    0.176237
   13   H13        2.147805914     0.000000000     0.749191961       H   1  noname    0.176240
   14   H14        2.152189049     0.000000000    -1.752951144       H   1  noname    0.139888


@<TRIPOS>BOND
    1      1      2    2
    2      2      3    1
    3      3      4    2
    4      4      5    1
    5      5      6    2
    6      4      7    1
    7      7      8    1
    8      7      9    2
    9      6      1    1
   10      1     10    1
   11      2     11    1
   12      3     12    1
   13      5     13    1
   14      6     14    1
#
#	File Created by: Spartan'20 Export
#

@<TRIPOS>MOLECULE
M0393
13 13
SMALL
USER_CHARGES


@<TRIPOS>ATOM
    1   C1        -0.034873383     0.000000000    -1.665764442     C.2   1  noname   -0.259260
    2   C2        -1.251449498     0.000000000    -0.977076156     C.2   1  noname   -0.050321
    3   C3        -1.279196276     0.000000000     0.415793814     C.2   1  noname   -0.342433
    4   C4        -0.076833800     0.000000000     1.128201730     C.2   1  noname    0.531360
    5   C5         1.144628535     0.000000000     0.450517200     C.2   1  noname   -0.460196
    6   C6         1.160058602     0.000000000    -0.945887224     C.2   1  noname    0.011093
    7   O7        -0.167034823     0.000000000     2.500486021     O.3   1  noname   -0.653086
    8   H8        -0.019708897     0.000000000    -2.751943934       H   1  noname    0.148223
    9   H9        -2.188717270     0.000000000    -1.527825588       H   1  noname    0.133918
   10   H10       -2.215360845     0.000000000     0.966475406       H   1  noname    0.195043
   11   H11        2.079726594     0.000000000     1.009110224       H   1  noname    0.181880
   12   H12        2.113635993     0.000000000    -1.467936833       H   1  noname    0.125421
   13   H13        0.735125069     0.000000000     2.865849781       H   1  noname    0.438358


@<TRIPOS>BOND
    1      1      2    2
    2      2      3    1
    3      3      4    2
    4      4      5    1
    5      5      6    2
    6      4      7    1
    7      6      1    1
    8      1      8    1
    9      2      9    1
   10      3     10    1
   11      5     11    1
   12      6     12    1
   13      7     13    1
#
#	File Created by: Spartan'20 Export
#

@<TRIPOS>MOLECULE
M0394
15 15
SMALL
USER_CHARGES


@<TRIPOS>ATOM
    1   C1         0.267287991    -0.000065196    -2.174229244     C.2   1  noname   -0.113859
    2   C2         1.371834261     0.000195332    -1.316935206     C.2   1  noname   -0.060040
    3   C3         1.188029114     0.000262898     0.064348918     C.2   1  noname   -0.205392
    4   C4        -0.114517850     0.000097091     0.581605715     C.2   1  noname   -0.101353
    5   C5        -1.227041175    -0.000204835    -0.269958445     C.2   1  noname   -0.122895
    6   C6        -1.027169734    -0.000219412    -1.651073130     C.2   1  noname   -0.117032
    7   P7        -0.461557786     0.000052602     2.340537520       P   1  noname    1.029727
    8   O8        -1.899562321     0.000554833     2.709300225     O.2   1  noname   -0.657248
    9   Cl9        0.585857657     1.582870414     3.065483634      Cl   1  noname   -0.185290
   10   Cl10       0.584402261    -1.583880806     3.065401496      Cl   1  noname   -0.185412
   11   H11        0.417966388    -0.000096076    -3.250603366       H   1  noname    0.139878
   12   H12        2.378738377     0.000365978    -1.725476006       H   1  noname    0.129513
   13   H13        2.048991282     0.000596404     0.728748956       H   1  noname    0.145330
   14   H14       -2.228506822    -0.000192109     0.151210807       H   1  noname    0.165758
   15   H15       -1.884751641    -0.000337118    -2.318361874       H   1  noname    0.138316


@<TRIPOS>BOND
    1      1      2    2
    2      2      3    1
    3      3      4    2
    4      4      5    1
    5      5      6    2
    6      4      7    1
    7      7      8    2
    8      7      9    1
    9      7     10    1
   10      6      1    1
   11      1     11    1
   12      2     12    1
   13      3     13    1
   14      5     14    1
   15      6     15    1
#
#	File Created by: Spartan'20 Export
#

@<TRIPOS>MOLECULE
M0395
25 26
SMALL
USER_CHARGES


@<TRIPOS>ATOM
    1   C1         3.636627971     1.249749758    -0.153221564     C.2   1  noname   -0.156726
    2   C2         2.620613520     1.316532706    -1.112312724     C.2   1  noname   -0.054898
    3   C3         1.543567012     0.433111874    -1.054937347     C.2   1  noname   -0.244463
    4   C4         1.489783684    -0.526422217    -0.033502040     C.2   1  noname    0.021202
    5   C5         2.504196637    -0.594265480     0.930337909     C.2   1  noname   -0.185485
    6   C6         3.578543124     0.295242327     0.864053961     C.2   1  noname   -0.091849
    7   P7         0.123776479    -1.691530260     0.122070352       P   1  noname    0.904973
    8   O8         0.252358721    -2.623855104     1.284591750     O.2   1  noname   -0.669320
    9   C9        -1.394164932    -0.716639984     0.038720100     C.2   1  noname   -0.115182
   10   C10       -1.400346438     0.567935570     0.606201076     C.2   1  noname   -0.075922
   11   C11       -2.590789120     1.293200076     0.674272472     C.2   1  noname   -0.179537
   12   C12       -3.777560425     0.740239929     0.190361221     C.2   1  noname   -0.059620
   13   C13       -3.774638728    -0.543053322    -0.364230553     C.2   1  noname   -0.152348
   14   C14       -2.589883279    -1.275455235    -0.435113955     C.2   1  noname   -0.114814
   15   Cl15       0.131411121    -2.658095222    -1.695423107      Cl   1  noname   -0.235283
   16   H16        4.474757635     1.940582473    -0.203101951       H   1  noname    0.145896
   17   H17        2.668521018     2.058997108    -1.905095519       H   1  noname    0.128276
   18   H18        0.756699031     0.482599916    -1.805141441       H   1  noname    0.138819
   19   H19        2.442568334    -1.344991077     1.714319012       H   1  noname    0.169109
   20   H20        4.369497685     0.243293765     1.608117802       H   1  noname    0.134131
   21   H21       -0.479963394     1.003275650     0.988578527       H   1  noname    0.128972
   22   H22       -2.590358376     2.290316225     1.108308347       H   1  noname    0.143772
   23   H23       -4.703394295     1.307684988     0.243002912       H   1  noname    0.130073
   24   H24       -4.698499466    -0.976651444    -0.740282321       H   1  noname    0.141179
   25   H25       -2.593323522    -2.271803020    -0.870572918       H   1  noname    0.149046


@<TRIPOS>BOND
    1      1      2    2
    2      2      3    1
    3      3      4    2
    4      4      5    1
    5      5      6    2
    6      4      7    1
    7      7      8    2
    8      7      9    1
    9      9     10    2
   10     10     11    1
   11     11     12    2
   12     12     13    1
   13     13     14    2
   14      7     15    1
   15      6      1    1
   16     14      9    1
   17      1     16    1
   18      2     17    1
   19      3     18    1
   20      5     19    1
   21      6     20    1
   22     10     21    1
   23     11     22    1
   24     12     23    1
   25     13     24    1
   26     14     25    1
#
#	File Created by: Spartan'20 Export
#

@<TRIPOS>MOLECULE
M0396
25 26
SMALL
USER_CHARGES


@<TRIPOS>ATOM
    1   C1         3.522625595    -0.003133163    -1.069522473     C.2   1  noname   -0.156451
    2   C2         2.987906357    -1.214810316    -0.623138412     C.2   1  noname   -0.065902
    3   C3         1.912963103    -1.223163630     0.266414306     C.2   1  noname   -0.210524
    4   C4         1.395384255    -0.002841020     0.706503899     C.2   1  noname    0.001363
    5   C5         1.921098795     1.217314921     0.275634969     C.2   1  noname   -0.204671
    6   C6         2.995976931     1.208625451    -0.614006060     C.2   1  noname   -0.070440
    7   S7         0.000010421    -0.002439341     1.813855758       S   1  noname    1.086737
    8   O8        -0.001856014    -1.291107717     2.523557868     O.2   1  noname   -0.594380
    9   O9         0.001950498     1.284448590     2.526844733     O.2   1  noname   -0.594649
   10   C10       -1.395467323     0.000932984     0.706589041     C.2   1  noname    0.000554
   11   C11       -1.909044623     1.222404101     0.264629652     C.2   1  noname   -0.207748
   12   C12       -2.983765403     1.216403311    -0.625089513     C.2   1  noname   -0.069011
   13   C13       -3.522590528     0.005831586    -1.069417743     C.2   1  noname   -0.155013
   14   C14       -3.000104797    -1.207033767    -0.611886355     C.2   1  noname   -0.069089
   15   C15       -1.925169549    -1.218083310     0.277658360     C.2   1  noname   -0.205454
   16   H16        4.360169726    -0.003320344    -1.762657275       H   1  noname    0.147645
   17   H17        3.409290831    -2.155764048    -0.967944711       H   1  noname    0.131159
   18   H18        1.500765370    -2.154266646     0.645630215       H   1  noname    0.174223
   19   H19        1.515289556     2.148216780     0.662176587       H   1  noname    0.172994
   20   H20        3.423479244     2.149380153    -0.951688918       H   1  noname    0.131757
   21   H21       -1.494051924     2.152849012     0.642518349       H   1  noname    0.173528
   22   H22       -3.401749555     2.158244126    -0.971482016       H   1  noname    0.131832
   23   H23       -4.360064442     0.007706994    -1.762634825       H   1  noname    0.147202
   24   H24       -3.431038949    -2.146818797    -0.947980068       H   1  noname    0.131189
   25   H25       -1.522007573    -2.149575907     0.665434633       H   1  noname    0.173152


@<TRIPOS>BOND
    1      1      2    2
    2      2      3    1
    3      3      4    2
    4      4      5    1
    5      5      6    2
    6      4      7    1
    7      7      8    2
    8      7      9    2
    9      7     10    1
   10     10     11    2
   11     11     12    1
   12     12     13    2
   13     13     14    1
   14     14     15    2
   15      6      1    1
   16     15     10    1
   17      1     16    1
   18      2     17    1
   19      3     18    1
   20      5     19    1
   21      6     20    1
   22     11     21    1
   23     12     22    1
   24     13     23    1
   25     14     24    1
   26     15     25    1
#
#	File Created by: Spartan'20 Export
#

@<TRIPOS>MOLECULE
M0397
24 25
SMALL
USER_CHARGES


@<TRIPOS>ATOM
    1   C1         0.945464351     3.415531078     0.325339271     C.2   1  noname   -0.187624
    2   C2         1.075249169     2.796456462    -0.921258100     C.2   1  noname   -0.031596
    3   C3         0.217982854     1.754986580    -1.279505252     C.2   1  noname   -0.334327
    4   C4        -0.751895221     1.335290544    -0.367509283     C.2   1  noname    0.231975
    5   C5        -0.906769344     1.953594515     0.871517243     C.2   1  noname   -0.204498
    6   C6        -0.045709777     2.996528988     1.216817629     C.2   1  noname   -0.101204
    7   S7        -1.894290592     0.000085875    -0.793218889       S   1  noname    0.254049
    8   O8        -2.976057053    -0.000230025     0.268317391     O.2   1  noname   -0.511998
    9   C9        -0.751828306    -1.335476448    -0.369193983     C.2   1  noname    0.231369
   10   C10        0.212010717    -1.759729882    -1.285488897     C.2   1  noname   -0.332395
   11   C11        1.070165856    -2.800798290    -0.928273351     C.2   1  noname   -0.032194
   12   C12        0.946998656    -3.414994152     0.321623397     C.2   1  noname   -0.186028
   13   C13       -0.038551594    -2.991732662     1.217444664     C.2   1  noname   -0.100170
   14   C14       -0.900260905    -1.949119002     0.873237700     C.2   1  noname   -0.204922
   15   H15        1.611360121     4.230713665     0.596696122       H   1  noname    0.147947
   16   H16        1.836866028     3.133613739    -1.620241722       H   1  noname    0.126710
   17   H17        0.302874485     1.284708052    -2.257362984       H   1  noname    0.170672
   18   H18       -1.701574158     1.616120917     1.532906073       H   1  noname    0.169718
   19   H19       -0.152412010     3.487690302     2.180755191       H   1  noname    0.141161
   20   H20        0.290992288    -1.293757487    -2.266012556       H   1  noname    0.169473
   21   H21        1.827131103    -3.141656737    -1.630552698       H   1  noname    0.126579
   22   H22        1.613514190    -4.229960351     0.592152452       H   1  noname    0.147104
   23   H23       -0.140196591    -3.479303728     2.183884612       H   1  noname    0.140602
   24   H24       -1.691064266    -1.608561953     1.537925969       H   1  noname    0.169595


@<TRIPOS>BOND
    1      1      2    2
    2      2      3    1
    3      3      4    2
    4      4      5    1
    5      5      6    2
    6      4      7    1
    7      7      8    2
    8      7      9    1
    9      9     10    2
   10     10     11    1
   11     11     12    2
   12     12     13    1
   13     13     14    2
   14      6      1    1
   15     14      9    1
   16      1     15    1
   17      2     16    1
   18      3     17    1
   19      5     18    1
   20      6     19    1
   21     10     20    1
   22     11     21    1
   23     12     22    1
   24     13     23    1
   25     14     24    1
#
#	File Created by: Spartan'20 Export
#

@<TRIPOS>MOLECULE
M0398
26 28
SMALL
USER_CHARGES


@<TRIPOS>ATOM
    1   C1        -4.408766356     0.000000000    -0.920367959     C.2   1  noname   -0.116501
    2   C2        -3.224334437     0.000000000    -1.664046743     C.2   1  noname   -0.117579
    3   C3        -1.991209358     0.000000000    -1.016522883     C.2   1  noname   -0.251351
    4   C4        -1.936078218     0.000000000     0.387686923     C.2   1  noname    0.244330
    5   C5        -3.130047987     0.000000000     1.131461906     C.2   1  noname   -0.229267
    6   C6        -4.359450766     0.000000000     0.476719768     C.2   1  noname   -0.103060
    7   C7        -0.688857651     0.000000000     1.117037203     C.2   1  noname   -0.137602
    8   C8         0.689104039     0.000000000     1.117415600     C.2   1  noname   -0.137812
    9   C9        -0.000327350     0.000000000     2.378803002     C.2   1  noname    0.505046
   10   O10       -0.000883348     0.000000000     3.600908287     O.2   1  noname   -0.598015
   11   C11        1.936371621     0.000000000     0.388097439     C.2   1  noname    0.244533
   12   C12        1.991214996     0.000000000    -1.016131209     C.2   1  noname   -0.251449
   13   C13        3.224167581     0.000000000    -1.663917253     C.2   1  noname   -0.117526
   14   C14        4.408717027     0.000000000    -0.920453350     C.2   1  noname   -0.116543
   15   C15        4.359684799     0.000000000     0.476650865     C.2   1  noname   -0.103001
   16   C16        3.130450544     0.000000000     1.131647787     C.2   1  noname   -0.229388
   17   H17       -5.369247931     0.000000000    -1.430642893       H   1  noname    0.137363
   18   H18       -3.264516720     0.000000000    -2.750729476       H   1  noname    0.136701
   19   H19       -1.070528452     0.000000000    -1.593902714       H   1  noname    0.172539
   20   H20       -3.073707235     0.000000000     2.218050411       H   1  noname    0.173808
   21   H21       -5.280605635     0.000000000     1.054492188       H   1  noname    0.137153
   22   H22        1.070344721     0.000000000    -1.593228612       H   1  noname    0.172588
   23   H23        3.264126915     0.000000000    -2.750599253       H   1  noname    0.136698
   24   H24        5.369088792     0.000000000    -1.430900950       H   1  noname    0.137365
   25   H25        5.280936220     0.000000000     1.054231418       H   1  noname    0.137143
   26   H26        3.074354189     0.000000000     2.218240494       H   1  noname    0.173826


@<TRIPOS>BOND
    1      1      2    2
    2      2      3    1
    3      3      4    2
    4      4      5    1
    5      5      6    2
    6      4      7    1
    7      7      8    2
    8      8      9    1
    9      9     10    2
   10      8     11    1
   11     11     12    2
   12     12     13    1
   13     13     14    2
   14     14     15    1
   15     15     16    2
   16      6      1    1
   17      9      7    1
   18     16     11    1
   19      1     17    1
   20      2     18    1
   21      3     19    1
   22      5     20    1
   23      6     21    1
   24     12     22    1
   25     13     23    1
   26     14     24    1
   27     15     25    1
   28     16     26    1
#
#	File Created by: Spartan'20 Export
#

@<TRIPOS>MOLECULE
M0399
27 29
SMALL
USER_CHARGES


@<TRIPOS>ATOM
    1   C1         0.375300433     0.000000000     4.605814438     C.2   1  noname   -0.113672
    2   C2        -0.949276765     0.000000000     4.162499720     C.2   1  noname   -0.104887
    3   C3        -1.238740079     0.000000000     2.800141199     C.2   1  noname   -0.224318
    4   C4        -0.200440964     0.000000000     1.853496213     C.2   1  noname    0.104657
    5   C5         1.130560415     0.000000000     2.303937298     C.2   1  noname   -0.158443
    6   C6         1.410341372     0.000000000     3.669506009     C.2   1  noname   -0.139706
    7   C7        -0.492748708     0.000000000     0.408502587     C.2   1  noname    0.354984
    8   C8        -1.726058495     0.000000000    -0.168563218     C.2   1  noname   -0.634691
    9   C9        -1.914728595     0.000000000    -1.609932272     C.2   1  noname    0.763742
   10   O10       -3.031185154     0.000000000    -2.149083870     O.2   1  noname   -0.604511
   11   C11       -0.657214059     0.000000000    -2.381486163     C.2   1  noname   -0.294149
   12   C12       -0.659728361     0.000000000    -3.785622726     C.2   1  noname   -0.054602
   13   C13        0.537754883     0.000000000    -4.485670650     C.2   1  noname   -0.253449
   14   C14        1.760346740     0.000000000    -3.791409437     C.2   1  noname    0.034777
   15   C15        1.784302123     0.000000000    -2.402849193     C.2   1  noname   -0.460113
   16   C16        0.569086046     0.000000000    -1.709808743     C.2   1  noname    0.548455
   17   O17        0.655732169     0.000000000    -0.335723165     O.3   1  noname   -0.388955
   18   H18        0.597045802     0.000000000     5.669932932       H   1  noname    0.137444
   19   H19       -1.764633872     0.000000000     4.881472350       H   1  noname    0.133663
   20   H20       -2.277166966     0.000000000     2.483063079       H   1  noname    0.166919
   21   H21        1.942366162     0.000000000     1.584828010       H   1  noname    0.151714
   22   H22        2.445312631     0.000000000     4.002493433       H   1  noname    0.138678
   23   H23       -2.620949449     0.000000000     0.441886500       H   1  noname    0.234606
   24   H24       -1.622545089     0.000000000    -4.289360119       H   1  noname    0.161058
   25   H25        0.533680858     0.000000000    -5.572309225       H   1  noname    0.157305
   26   H26        2.697714755     0.000000000    -4.341815438       H   1  noname    0.130590
   27   H27        2.715872167     0.000000000    -1.843939548       H   1  noname    0.212904


@<TRIPOS>BOND
    1      1      2    2
    2      2      3    1
    3      3      4    2
    4      4      5    1
    5      5      6    2
    6      4      7    1
    7      7      8    2
    8      8      9    1
    9      9     10    2
   10      9     11    1
   11     11     12    2
   12     12     13    1
   13     13     14    2
   14     14     15    1
   15     15     16    2
   16     16     17    1
   17      6      1    1
   18     17      7    1
   19     16     11    1
   20      1     18    1
   21      2     19    1
   22      3     20    1
   23      5     21    1
   24      6     22    1
   25      8     23    1
   26     12     24    1
   27     13     25    1
   28     14     26    1
   29     15     27    1
#
#	File Created by: Spartan'20 Export
#

@<TRIPOS>MOLECULE
M0400
21 22
SMALL
USER_CHARGES


@<TRIPOS>ATOM
    1   C1        -0.122756227     0.000000000    -3.495972768     C.2   1  noname   -0.085407
    2   C2        -1.306236538     0.000000000    -2.754112068     C.2   1  noname   -0.196980
    3   C3        -1.268580541     0.000000000    -1.361249678     C.2   1  noname   -0.006908
    4   C4        -0.040866882     0.000000000    -0.677335635     C.2   1  noname   -0.165522
    5   C5         1.143857698     0.000000000    -1.431877792     C.2   1  noname   -0.111364
    6   C6         1.101671594     0.000000000    -2.826222940     C.2   1  noname   -0.163012
    7   C7        -0.034617832     0.000000000     0.808932727     C.2   1  noname    0.637170
    8   C8         1.147735164     0.000000000     1.567249244     C.2   1  noname   -0.546982
    9   C9         1.071884625     0.000000000     2.957589580     C.2   1  noname    0.183095
   10   C10       -0.181300269     0.000000000     3.566937167     C.2   1  noname   -0.446477
   11   C11       -1.307069834     0.000000000     2.743477496     C.2   1  noname    0.334956
   12   N12       -1.249638236     0.000000000     1.403714377     N.2   1  noname   -0.610340
   13   H13       -0.153932364     0.000000000    -4.582780849       H   1  noname    0.125949
   14   H14       -2.267210632     0.000000000    -3.263349412       H   1  noname    0.139942
   15   H15       -2.186103195     0.000000000    -0.781957629       H   1  noname    0.100917
   16   H16        2.115204224     0.000000000    -0.945662978       H   1  noname    0.126072
   17   H17        2.031524350     0.000000000    -3.390173989       H   1  noname    0.132093
   18   H18        2.121154662     0.000000000     1.088844159       H   1  noname    0.202687
   19   H19        1.980622075     0.000000000     3.554538443       H   1  noname    0.102043
   20   H20       -0.286929574     0.000000000     4.647979167       H   1  noname    0.177132
   21   H21       -2.308412271     0.000000000     3.171433379       H   1  noname    0.070937


@<TRIPOS>BOND
    1      1      2    2
    2      2      3    1
    3      3      4    2
    4      4      5    1
    5      5      6    2
    6      4      7    1
    7      7      8    2
    8      8      9    1
    9      9     10    2
   10     10     11    1
   11     11     12    2
   12      6      1    1
   13     12      7    1
   14      1     13    1
   15      2     14    1
   16      3     15    1
   17      5     16    1
   18      6     17    1
   19      8     18    1
   20      9     19    1
   21     10     20    1
   22     11     21    1
#
#	File Created by: Spartan'20 Export
#

@<TRIPOS>MOLECULE
M0401
22 23
SMALL
USER_CHARGES


@<TRIPOS>ATOM
    1   C1        -0.000396861    -0.000038543     3.577018227     C.2   1  noname   -0.129203
    2   C2         1.133188301     0.416602049     2.874847250     C.2   1  noname   -0.124022
    3   C3         1.133310486     0.421910227     1.480130453     C.2   1  noname   -0.195670
    4   C4         0.000463621    -0.000036738     0.765475626     C.2   1  noname    0.131366
    5   C5        -1.132701310    -0.422067997     1.479950658     C.2   1  noname   -0.195685
    6   C6        -1.133439240    -0.416790147     2.874651530     C.2   1  noname   -0.123923
    7   C7         0.000441855     0.000194473    -0.706966970     C.2   1  noname   -0.002105
    8   C8        -1.111255671     0.431127658    -1.448885648     C.2   1  noname   -0.123386
    9   C9        -1.106624853     0.426892938    -2.828816356     C.2   1  noname   -0.237789
   10   N10       -0.000313455    -0.000332281    -3.541774601       N   1  noname    0.577520
   11   O11       -0.001166767    -0.000286161    -4.807609386       O   1  noname   -0.633763
   12   C12        1.106712489    -0.426749201    -2.829276944     C.2   1  noname   -0.237839
   13   C13        1.112001655    -0.430801121    -1.449305908     C.2   1  noname   -0.123431
   14   H14       -0.000712394     0.000057004     4.664114982       H   1  noname    0.135918
   15   H15        2.015959809     0.751214657     3.415023897       H   1  noname    0.138379
   16   H16        2.006405926     0.781592812     0.938840150       H   1  noname    0.143407
   17   H17       -2.005695104    -0.781517834     0.938328688       H   1  noname    0.143323
   18   H18       -2.016589963    -0.751309092     3.414518859       H   1  noname    0.138390
   19   H19       -1.999488253     0.802592063    -0.942853964       H   1  noname    0.155359
   20   H20       -1.922981954     0.754041034    -3.461525711       H   1  noname    0.203894
   21   H21        1.922385832    -0.754357303    -3.462391572       H   1  noname    0.203843
   22   H22        2.000495852    -0.801938497    -0.943493260       H   1  noname    0.155416


@<TRIPOS>BOND
    1      1      2    2
    2      2      3    1
    3      3      4    2
    4      4      5    1
    5      5      6    2
    6      4      7    1
    7      7      8    2
    8      8      9    1
    9      9     10    2
   10     10     11    1
   11     10     12    1
   12     12     13    2
   13      6      1    1
   14     13      7    1
   15      1     14    1
   16      2     15    1
   17      3     16    1
   18      5     17    1
   19      6     18    1
   20      8     19    1
   21      9     20    1
   22     12     21    1
   23     13     22    1
#
#	File Created by: Spartan'20 Export
#

@<TRIPOS>MOLECULE
M0402
21 22
SMALL
USER_CHARGES


@<TRIPOS>ATOM
    1   C1        -0.000048756     0.000103964     3.341257457     C.2   1  noname   -0.099950
    2   C2         1.128837019     0.430394387     2.639800222     C.2   1  noname   -0.150724
    3   C3         1.130103939     0.431292613     1.244887981     C.2   1  noname   -0.152314
    4   C4         0.000021132    -0.000044886     0.533039063     C.2   1  noname    0.016427
    5   C5        -1.130085143    -0.431329370     1.244954218     C.2   1  noname   -0.152329
    6   C6        -1.128888435    -0.430278931     2.639868340     C.2   1  noname   -0.150708
    7   C7         0.000000193    -0.000060621    -0.943235070     C.2   1  noname    0.428329
    8   C8        -1.102584413     0.461247394    -1.674374919     C.2   1  noname   -0.564764
    9   C9        -1.056096021     0.438093414    -3.067595365     C.2   1  noname    0.449804
   10   N10        0.000046690    -0.000001175    -3.777511276     N.2   1  noname   -0.670493
   11   C11        1.056145587    -0.438148674    -3.067655087     C.2   1  noname    0.449839
   12   C12        1.102592839    -0.461358328    -1.674433281     C.2   1  noname   -0.564785
   13   H13       -0.000062533     0.000177582     4.428437772       H   1  noname    0.127880
   14   H14        2.007236042     0.774880527     3.180394922       H   1  noname    0.137940
   15   H15        2.000223381     0.793257879     0.700915880       H   1  noname    0.138622
   16   H16       -2.000191685    -0.793337038     0.701005758       H   1  noname    0.138617
   17   H17       -2.007307202    -0.774706189     3.180497453       H   1  noname    0.137943
   18   H18       -1.977816289     0.855221764    -1.163352861       H   1  noname    0.189119
   19   H19       -1.902595883     0.795802092    -3.651685185       H   1  noname    0.051220
   20   H20        1.902639899    -0.795860405    -3.651769011       H   1  noname    0.051216
   21   H21        1.977829640    -0.855346000    -1.163447012       H   1  noname    0.189111


@<TRIPOS>BOND
    1      1      2    2
    2      2      3    1
    3      3      4    2
    4      4      5    1
    5      5      6    2
    6      4      7    1
    7      7      8    2
    8      8      9    1
    9      9     10    2
   10     10     11    1
   11     11     12    2
   12      6      1    1
   13     12      7    1
   14      1     13    1
   15      2     14    1
   16      3     15    1
   17      5     16    1
   18      6     17    1
   19      8     18    1
   20      9     19    1
   21     11     20    1
   22     12     21    1
#
#	File Created by: Spartan'20 Export
#

@<TRIPOS>MOLECULE
M0403
24 26
SMALL
USER_CHARGES


@<TRIPOS>ATOM
    1   C1         0.053870400     0.000000000    -4.412920241     C.2   1  noname   -0.121558
    2   C2        -1.182465961     0.000000000    -3.759536359     C.2   1  noname   -0.121522
    3   C3        -1.243939831     0.000000000    -2.368535829     C.2   1  noname   -0.151572
    4   C4        -0.055920920     0.000000000    -1.621552813     C.2   1  noname    0.040473
    5   C5         1.186571857     0.000000000    -2.272096038     C.2   1  noname   -0.164752
    6   C6         1.233855179     0.000000000    -3.665401866     C.2   1  noname   -0.126995
    7   C7        -0.142284701     0.000000000    -0.166680525     C.2   1  noname    0.506277
    8   N8        -1.225570233     0.000000000     0.567115399     N.2   1  noname   -0.610961
    9   C9        -0.748823372     0.000000000     1.875095136     C.2   1  noname    0.369654
   10   C10       -1.428411009     0.000000000     3.098815087     C.2   1  noname   -0.336978
   11   C11       -0.652296971     0.000000000     4.254662421     C.2   1  noname   -0.138871
   12   C12        0.757877783     0.000000000     4.201970194     C.2   1  noname   -0.171405
   13   C13        1.449116842     0.000000000     2.990842889     C.2   1  noname   -0.301303
   14   C14        0.652178692     0.000000000     1.851762521     C.2   1  noname    0.254301
   15   O15        1.048911569     0.000000000     0.537516998     O.3   1  noname   -0.360991
   16   H16        0.096790305     0.000000000    -5.499407766       H   1  noname    0.137622
   17   H17       -2.103223787     0.000000000    -4.337861508       H   1  noname    0.134365
   18   H18       -2.196269845     0.000000000    -1.845247535       H   1  noname    0.150292
   19   H19        2.102827506     0.000000000    -1.688515260       H   1  noname    0.153381
   20   H20        2.197219843     0.000000000    -4.169560625       H   1  noname    0.135008
   21   H21       -2.514289698     0.000000000     3.133740956       H   1  noname    0.208563
   22   H22       -1.140774081     0.000000000     5.225682833       H   1  noname    0.151558
   23   H23        1.321381587     0.000000000     5.131495284       H   1  noname    0.159440
   24   H24        2.533668847     0.000000000     2.938616644       H   1  noname    0.205975


@<TRIPOS>BOND
    1      1      2    2
    2      2      3    1
    3      3      4    2
    4      4      5    1
    5      5      6    2
    6      4      7    1
    7      7      8    2
    8      8      9    1
    9      9     10    2
   10     10     11    1
   11     11     12    2
   12     12     13    1
   13     13     14    2
   14     14     15    1
   15      6      1    1
   16     15      7    1
   17     14      9    1
   18      1     16    1
   19      2     17    1
   20      3     18    1
   21      5     19    1
   22      6     20    1
   23     10     21    1
   24     11     22    1
   25     12     23    1
   26     13     24    1
#
#	File Created by: Spartan'20 Export
#

@<TRIPOS>MOLECULE
M0404
24 26
SMALL
USER_CHARGES


@<TRIPOS>ATOM
    1   C1        -2.880235559     0.000000000    -1.526135416     C.2   1  noname   -0.075852
    2   C2        -3.577329731     0.000000000    -0.314599745     C.2   1  noname   -0.168493
    3   C3        -2.863974093     0.000000000     0.878113283     C.2   1  noname   -0.081677
    4   C4        -1.463079880     0.000000000     0.865882699     C.2   1  noname   -0.120237
    5   C5        -0.740745309     0.000000000    -0.350017664     C.2   1  noname    0.063170
    6   C6        -1.486813964     0.000000000    -1.541642228     C.2   1  noname   -0.213766
    7   C7         0.740695689     0.000000000    -0.349987089     C.2   1  noname    0.063214
    8   C8         1.486736482     0.000000000    -1.541561261     C.2   1  noname   -0.213811
    9   C9         2.880260187     0.000000000    -1.526059118     C.2   1  noname   -0.075834
   10   C10        3.577377881     0.000000000    -0.314568153     C.2   1  noname   -0.168503
   11   C11        2.864023940     0.000000000     0.878097476     C.2   1  noname   -0.081646
   12   C12        1.463026201     0.000000000     0.865893613     C.2   1  noname   -0.120290
   13   C13        0.767678956     0.000000000     2.174371565     C.2   1  noname    0.465511
   14   O14        1.364243267     0.000000000     3.251448049     O.2   1  noname   -0.473726
   15   C15       -0.767733519     0.000000000     2.174376444     C.2   1  noname    0.465509
   16   O16       -1.364209427     0.000000000     3.251510959     O.2   1  noname   -0.473716
   17   H17       -3.423909325     0.000000000    -2.467942330       H   1  noname    0.140378
   18   H18       -4.664144580     0.000000000    -0.304867703       H   1  noname    0.149233
   19   H19       -3.367692793     0.000000000     1.841058814       H   1  noname    0.159029
   20   H20       -0.989188763     0.000000000    -2.505920949       H   1  noname    0.156432
   21   H21        0.989035424     0.000000000    -2.505764972       H   1  noname    0.156432
   22   H22        3.423962352     0.000000000    -2.467859765       H   1  noname    0.140373
   23   H23        4.664185914     0.000000000    -0.304841225       H   1  noname    0.149242
   24   H24        3.367830651     0.000000000     1.841014718       H   1  noname    0.159027


@<TRIPOS>BOND
    1      1      2    2
    2      2      3    1
    3      3      4    2
    4      4      5    1
    5      5      6    2
    6      5      7    1
    7      7      8    2
    8      8      9    1
    9      9     10    2
   10     10     11    1
   11     11     12    2
   12     12     13    1
   13     13     14    2
   14     13     15    1
   15     15     16    2
   16      6      1    1
   17     15      4    1
   18     12      7    1
   19      1     17    1
   20      2     18    1
   21      3     19    1
   22      6     20    1
   23      8     21    1
   24      9     22    1
   25     10     23    1
   26     11     24    1
#
#	File Created by: Spartan'20 Export
#

@<TRIPOS>MOLECULE
M0405
22 24
SMALL
USER_CHARGES


@<TRIPOS>ATOM
    1   C1        -3.026072737     0.000000000    -1.143200448     C.2   1  noname   -0.110050
    2   C2        -3.462511103     0.000000000     0.187929357     C.2   1  noname   -0.143970
    3   C3        -2.538182044     0.000000000     1.239335955     C.2   1  noname   -0.148525
    4   C4        -1.188190792     0.000000000     0.916620076     C.2   1  noname   -0.024479
    5   C5        -0.739522052     0.000000000    -0.417231185     C.2   1  noname    0.040506
    6   C6        -1.660791037     0.000000000    -1.460505211     C.2   1  noname   -0.197370
    7   C7         0.739578774     0.000000000    -0.416899364     C.2   1  noname    0.040476
    8   C8         1.660734492     0.000000000    -1.460237094     C.2   1  noname   -0.197342
    9   C9         3.026198340     0.000000000    -1.143200922     C.2   1  noname   -0.110118
   10   C10        3.462594258     0.000000000     0.187866282     C.2   1  noname   -0.143845
   11   C11        2.538367196     0.000000000     1.239371486     C.2   1  noname   -0.148622
   12   C12        1.188142166     0.000000000     0.916974703     C.2   1  noname   -0.024489
   13   C13       -0.000209251     0.000000000     1.825813973     C.2   1  noname    0.459283
   14   O14       -0.000294699     0.000000000     3.053952926     O.2   1  noname   -0.496168
   15   H15       -3.760456614     0.000000000    -1.945255201       H   1  noname    0.140613
   16   H16       -4.528268026     0.000000000     0.402249253       H   1  noname    0.140464
   17   H17       -2.855001010     0.000000000     2.280002278       H   1  noname    0.165330
   18   H18       -1.340159379     0.000000000    -2.500479506       H   1  noname    0.155954
   19   H19        1.339516783     0.000000000    -2.500022718       H   1  noname    0.155928
   20   H20        3.760665488     0.000000000    -1.945201547       H   1  noname    0.140652
   21   H21        4.528365737     0.000000000     0.402144271       H   1  noname    0.140432
   22   H22        2.855495511     0.000000000     2.279972634       H   1  noname    0.165338


@<TRIPOS>BOND
    1      1      2    2
    2      2      3    1
    3      3      4    2
    4      4      5    1
    5      5      6    2
    6      5      7    1
    7      7      8    2
    8      8      9    1
    9      9     10    2
   10     10     11    1
   11     11     12    2
   12     12     13    1
   13     13     14    2
   14      6      1    1
   15     13      4    1
   16     12      7    1
   17      1     15    1
   18      2     16    1
   19      3     17    1
   20      6     18    1
   21      8     19    1
   22      9     20    1
   23     10     21    1
   24     11     22    1
#
#	File Created by: Spartan'20 Export
#

@<TRIPOS>MOLECULE
M0406
21 22
SMALL
USER_CHARGES


@<TRIPOS>ATOM
    1   C1        -2.475453661    -1.179687666    -0.142366594     C.2   1  noname   -0.150642
    2   C2        -2.748776675     0.123072784     0.283600335     C.2   1  noname   -0.094306
    3   C3        -1.699617894     1.023024314     0.461175955     C.2   1  noname   -0.291908
    4   C4        -0.374461677     0.646556095     0.208527610     C.2   1  noname    0.040187
    5   C5        -0.097614333    -0.663779108    -0.214326030     C.2   1  noname    0.245745
    6   C6        -1.158621671    -1.562037483    -0.391450123     C.2   1  noname   -0.288998
    7   C7         1.323556451    -1.089453588    -0.509994436     C.3   1  noname   -0.495071
    8   C8         2.338993632    -0.133936158     0.116089155     C.3   1  noname    0.149860
    9   N9         2.035491094     1.272232246    -0.159154619     N.3   1  noname   -0.816358
   10   C10        0.753170678     1.635012986     0.443620040     C.3   1  noname    0.062794
   11   H11       -3.285303156    -1.892005951    -0.281954575       H   1  noname    0.142457
   12   H12       -3.773044042     0.433216596     0.477345398       H   1  noname    0.132661
   13   H13       -1.910415699     2.040082605     0.791678426       H   1  noname    0.153344
   14   H14       -0.943367727    -2.578596128    -0.719424040       H   1  noname    0.167577
   15   H15        1.480495718    -1.112562126    -1.598222830       H   1  noname    0.156739
   16   H16        1.488688560    -2.115258629    -0.155079029       H   1  noname    0.141265
   17   H17        2.347635795    -0.255660553     1.206234043       H   1  noname    0.097166
   18   H18        3.350812959    -0.354709036    -0.242084967       H   1  noname    0.068857
   19   H19        1.964317635     1.392449358    -1.171390899       H   1  noname    0.400075
   20   H20        0.917622923     1.745974681     1.524690829       H   1  noname    0.095119
   21   H21        0.465891089     2.626064763     0.072486350       H   1  noname    0.083437


@<TRIPOS>BOND
    1      1      2    2
    2      2      3    1
    3      3      4    2
    4      4      5    1
    5      5      6    2
    6      5      7    1
    7      7      8    1
    8      8      9    1
    9      9     10    1
   10      6      1    1
   11     10      4    1
   12      1     11    1
   13      2     12    1
   14      3     13    1
   15      6     14    1
   16      7     15    1
   17      7     16    1
   18      8     17    1
   19      8     18    1
   20      9     19    1
   21     10     20    1
   22     10     21    1
#
#	File Created by: Spartan'20 Export
#

@<TRIPOS>MOLECULE
M0407
25 27
SMALL
USER_CHARGES


@<TRIPOS>ATOM
    1   C1        -3.706365477    -0.000653046    -0.615955369     C.2   1  noname   -0.016663
    2   C2        -3.692186562    -0.000500534     0.784740669     C.2   1  noname   -0.221509
    3   C3        -2.479793411    -0.000004423     1.462592500     C.2   1  noname   -0.074477
    4   C4        -1.271923627     0.000361951     0.747384285     C.2   1  noname   -0.202774
    5   C5        -1.274855094     0.000214707    -0.656356369     C.2   1  noname    0.363520
    6   C6        -2.507276485    -0.000285847    -1.323865345     C.2   1  noname   -0.373354
    7   C7        -0.000056141     0.000890264    -1.458503395     C.3   1  noname   -0.617373
    8   C8         1.274843327     0.000207378    -0.656545845     C.2   1  noname    0.363446
    9   C9         2.507430474    -0.000312611    -1.323873414     C.2   1  noname   -0.373383
   10   C10        3.706498303    -0.000666266    -0.615880499     C.2   1  noname   -0.016606
   11   C11        3.692245594    -0.000480610     0.784753651     C.2   1  noname   -0.221542
   12   C12        2.479695038     0.000020554     1.462432496     C.2   1  noname   -0.074503
   13   C13        1.271834355     0.000377322     0.747162299     C.2   1  noname   -0.202681
   14   C14        0.000048180     0.000770644     1.516502088     C.2   1  noname    0.595019
   15   O15        0.000365034     0.001292090     2.753586846     O.2   1  noname   -0.551336
   16   H16       -4.651994186    -0.001054983    -1.152665284       H   1  noname    0.131969
   17   H17       -4.626868158    -0.000779960     1.339665323       H   1  noname    0.150854
   18   H18       -2.434734118     0.000110256     2.547884506       H   1  noname    0.156071
   19   H19       -2.523744463    -0.000392259    -2.412896075       H   1  noname    0.179472
   20   H20       -0.000273720    -0.871978446    -2.126868899       H   1  noname    0.193720
   21   H21       -0.000265738     0.874994612    -2.125266521       H   1  noname    0.193754
   22   H22        2.524045239    -0.000448396    -2.412905515       H   1  noname    0.179467
   23   H23        4.652154747    -0.001083172    -1.152551917       H   1  noname    0.131952
   24   H24        4.626897667    -0.000744505     1.339749834       H   1  noname    0.150871
   25   H25        2.434279224     0.000145281     2.547679948       H   1  noname    0.156086


@<TRIPOS>BOND
    1      1      2    2
    2      2      3    1
    3      3      4    2
    4      4      5    1
    5      5      6    2
    6      5      7    1
    7      7      8    1
    8      8      9    2
    9      9     10    1
   10     10     11    2
   11     11     12    1
   12     12     13    2
   13     13     14    1
   14     14     15    2
   15      6      1    1
   16     14      4    1
   17     13      8    1
   18      1     16    1
   19      2     17    1
   20      3     18    1
   21      6     19    1
   22      7     20    1
   23      7     21    1
   24      9     22    1
   25     10     23    1
   26     11     24    1
   27     12     25    1
#
#	File Created by: Spartan'20 Export
#

@<TRIPOS>MOLECULE
M0408
15 16
SMALL
USER_CHARGES


@<TRIPOS>ATOM
    1   C1         0.478129765     0.000000000    -2.015696883     C.2   1  noname   -0.132812
    2   C2        -0.923459957     0.000000000    -1.934459902     C.2   1  noname   -0.143485
    3   C3        -1.585583216     0.000000000    -0.702144386     C.2   1  noname   -0.346343
    4   C4        -0.775736203     0.000000000     0.422579784     C.2   1  noname    0.366791
    5   C5         0.617933702     0.000000000     0.352897804     C.2   1  noname    0.258895
    6   C6         1.281601403     0.000000000    -0.871187428     C.2   1  noname   -0.356898
    7   N7         1.033238805     0.000000000     1.676362531   N.pl3   1  noname   -0.465022
    8   C8        -0.034652280     0.000000000     2.535926842     C.2   1  noname    0.388268
    9   S9        -0.048219336     0.000000000     4.168010580     S.2   1  noname   -0.369192
   10   O10       -1.170091914     0.000000000     1.743611903     O.3   1  noname   -0.325230
   11   H11        0.952982091     0.000000000    -2.992785594       H   1  noname    0.160113
   12   H12       -1.508927795     0.000000000    -2.849332018       H   1  noname    0.161756
   13   H13       -2.667893464     0.000000000    -0.620904237       H   1  noname    0.223367
   14   H14        2.366001402     0.000000000    -0.937746919       H   1  noname    0.216272
   15   H15        1.984676998     0.000000000     2.024867924       H   1  noname    0.363519


@<TRIPOS>BOND
    1      1      2    2
    2      2      3    1
    3      3      4    2
    4      4      5    1
    5      5      6    2
    6      5      7    1
    7      7      8    1
    8      8      9    2
    9      8     10    1
   10      6      1    1
   11     10      4    1
   12      1     11    1
   13      2     12    1
   14      3     13    1
   15      6     14    1
   16      7     15    1
#
#	File Created by: Spartan'20 Export
#

@<TRIPOS>MOLECULE
M0409
23 25
SMALL
USER_CHARGES


@<TRIPOS>ATOM
    1   C1        -3.658157121     0.000000000    -0.527733335     C.2   1  noname   -0.260858
    2   C2        -3.581432738     0.000000000     0.875477633     C.2   1  noname    0.013273
    3   C3        -2.349260297     0.000000000     1.515956341     C.2   1  noname   -0.392537
    4   C4        -1.181281367     0.000000000     0.744908923     C.2   1  noname    0.473570
    5   C5        -1.238528323     0.000000000    -0.655599157     C.2   1  noname   -0.267664
    6   C6        -2.495609278     0.000000000    -1.283723264     C.2   1  noname   -0.034164
    7   C7        -0.000006111     0.000000000    -1.454971244     C.2   1  noname    0.612091
    8   O8        -0.000091103     0.000000000    -2.692034340     O.2   1  noname   -0.559466
    9   C9         1.238582136     0.000000000    -0.655707933     C.2   1  noname   -0.267640
   10   C10        2.495657336     0.000000000    -1.283792476     C.2   1  noname   -0.034190
   11   C11        3.658139291     0.000000000    -0.527731455     C.2   1  noname   -0.260841
   12   C12        3.581434696     0.000000000     0.875524103     C.2   1  noname    0.013251
   13   C13        2.349275555     0.000000000     1.515955552     C.2   1  noname   -0.392488
   14   C14        1.181357514     0.000000000     0.744835887     C.2   1  noname    0.473534
   15   O15        0.000053964     0.000000000     1.446987363     O.3   1  noname   -0.423308
   16   H16       -4.627923108     0.000000000    -1.017813835       H   1  noname    0.158636
   17   H17       -4.491675594     0.000000000     1.469910696       H   1  noname    0.134312
   18   H18       -2.265235862     0.000000000     2.599000787       H   1  noname    0.203391
   19   H19       -2.516656373     0.000000000    -2.370241370       H   1  noname    0.157373
   20   H20        2.516704549     0.000000000    -2.370303495       H   1  noname    0.157382
   21   H21        4.627939557     0.000000000    -1.017766900       H   1  noname    0.158622
   22   H22        4.491714617     0.000000000     1.469908392       H   1  noname    0.134323
   23   H23        2.264998062     0.000000000     2.598953128       H   1  noname    0.203396


@<TRIPOS>BOND
    1      1      2    2
    2      2      3    1
    3      3      4    2
    4      4      5    1
    5      5      6    2
    6      5      7    1
    7      7      8    2
    8      7      9    1
    9      9     10    2
   10     10     11    1
   11     11     12    2
   12     12     13    1
   13     13     14    2
   14     14     15    1
   15      6      1    1
   16     15      4    1
   17     14      9    1
   18      1     16    1
   19      2     17    1
   20      3     18    1
   21      6     19    1
   22     10     20    1
   23     11     21    1
   24     12     22    1
   25     13     23    1
#
#	File Created by: Spartan'20 Export
#

@<TRIPOS>MOLECULE
M0410
23 25
SMALL
USER_CHARGES


@<TRIPOS>ATOM
    1   C1        -3.709748817     0.000000000    -0.663245443     C.2   1  noname   -0.171253
    2   C2        -3.796381383     0.000000000     0.736755740     C.2   1  noname   -0.060971
    3   C3        -2.641366243     0.000000000     1.506084226     C.2   1  noname   -0.298094
    4   C4        -1.375027788     0.000000000     0.892584063     C.2   1  noname    0.200051
    5   C5        -1.281940518     0.000000000    -0.510472857     C.2   1  noname   -0.122492
    6   C6        -2.466019513     0.000000000    -1.273678573     C.2   1  noname   -0.103983
    7   C7         0.000034563     0.000000000    -1.256227422     C.2   1  noname    0.536049
    8   O8        -0.000002533     0.000000000    -2.495651273     O.2   1  noname   -0.543896
    9   C9         1.282009928     0.000000000    -0.510487346     C.2   1  noname   -0.122491
   10   C10        2.466010929     0.000000000    -1.273711222     C.2   1  noname   -0.103964
   11   C11        3.709715134     0.000000000    -0.663253865     C.2   1  noname   -0.171280
   12   C12        3.796331144     0.000000000     0.736795165     C.2   1  noname   -0.060966
   13   C13        2.641394238     0.000000000     1.506143593     C.2   1  noname   -0.298065
   14   C14        1.375077914     0.000000000     0.892617102     C.2   1  noname    0.200035
   15   S15        0.000011259     0.000000000     1.981095643     S.3   1  noname   -0.172695
   16   H16       -4.613650260     0.000000000    -1.266742872       H   1  noname    0.142668
   17   H17       -4.767193545     0.000000000     1.226706533       H   1  noname    0.140275
   18   H18       -2.710682305     0.000000000     2.592284195       H   1  noname    0.201125
   19   H19       -2.363427882     0.000000000    -2.354963940       H   1  noname    0.162940
   20   H20        2.363308339     0.000000000    -2.354975244       H   1  noname    0.162943
   21   H21        4.613651488     0.000000000    -1.266717835       H   1  noname    0.142671
   22   H22        4.767152405     0.000000000     1.226730411       H   1  noname    0.140267
   23   H23        2.710743445     0.000000000     2.592331220       H   1  noname    0.201129


@<TRIPOS>BOND
    1      1      2    2
    2      2      3    1
    3      3      4    2
    4      4      5    1
    5      5      6    2
    6      5      7    1
    7      7      8    2
    8      7      9    1
    9      9     10    2
   10     10     11    1
   11     11     12    2
   12     12     13    1
   13     13     14    2
   14     14     15    1
   15      6      1    1
   16     15      4    1
   17     14      9    1
   18      1     16    1
   19      2     17    1
   20      3     18    1
   21      6     19    1
   22     10     20    1
   23     11     21    1
   24     12     22    1
   25     13     23    1
#
#	File Created by: Spartan'20 Export
#

@<TRIPOS>MOLECULE
M0411
23 25
SMALL
USER_CHARGES


@<TRIPOS>ATOM
    1   C1        -3.637407059     0.000000000    -0.564556977     C.2   1  noname   -0.160674
    2   C2        -3.585385542     0.000000000     0.857334926     C.2   1  noname   -0.073757
    3   C3        -2.376924420     0.000000000     1.512568362     C.2   1  noname   -0.346177
    4   C4        -1.155946346     0.000000000     0.777555754     C.2   1  noname    0.508044
    5   C5        -1.210661534     0.000000000    -0.664207464     C.2   1  noname    0.089780
    6   C6        -2.481947553     0.000000000    -1.308927979     C.2   1  noname   -0.237214
    7   C7         0.000056451     0.000000000    -1.364269479     C.2   1  noname   -0.373520
    8   C8         1.210752756     0.000000000    -0.664278666     C.2   1  noname    0.089842
    9   C9         2.481921919     0.000000000    -1.309007507     C.2   1  noname   -0.237248
   10   C10        3.637262023     0.000000000    -0.564555149     C.2   1  noname   -0.160660
   11   C11        3.585299841     0.000000000     0.857400991     C.2   1  noname   -0.073787
   12   C12        2.376927687     0.000000000     1.512640600     C.2   1  noname   -0.346152
   13   C13        1.156088329     0.000000000     0.777514233     C.2   1  noname    0.508121
   14   N14        0.000113584     0.000000000     1.475147631     N.2   1  noname   -0.677523
   15   H15       -4.603109505     0.000000000    -1.064271030       H   1  noname    0.144303
   16   H16       -4.511829654     0.000000000     1.426456818       H   1  noname    0.137944
   17   H17       -2.309572421     0.000000000     2.597403794       H   1  noname    0.188200
   18   H18       -2.521227100     0.000000000    -2.397090000       H   1  noname    0.164157
   19   H19       -0.000065944     0.000000000    -2.455317049       H   1  noname    0.221699
   20   H20        2.521355298     0.000000000    -2.397146516       H   1  noname    0.164183
   21   H21        4.602999882     0.000000000    -1.064251163       H   1  noname    0.144275
   22   H22        4.511836086     0.000000000     1.426415581       H   1  noname    0.137945
   23   H23        2.309463221     0.000000000     2.597440289       H   1  noname    0.188220


@<TRIPOS>BOND
    1      1      2    2
    2      2      3    1
    3      3      4    2
    4      4      5    1
    5      5      6    2
    6      5      7    1
    7      7      8    2
    8      8      9    1
    9      9     10    2
   10     10     11    1
   11     11     12    2
   12     12     13    1
   13     13     14    2
   14      6      1    1
   15     14      4    1
   16     13      8    1
   17      1     15    1
   18      2     16    1
   19      3     17    1
   20      6     18    1
   21      7     19    1
   22      9     20    1
   23     10     21    1
   24     11     22    1
   25     12     23    1
#
#	File Created by: Spartan'20 Export
#

@<TRIPOS>MOLECULE
M0412
17 18
SMALL
USER_CHARGES


@<TRIPOS>ATOM
    1   C1         0.116608541     0.000000000     2.435006595     C.2   1  noname   -0.205678
    2   C2        -1.257517953     0.000000000     2.148296927     C.2   1  noname   -0.027437
    3   C3        -1.705959259     0.000000000     0.831703282     C.2   1  noname   -0.409965
    4   C4        -0.766804627     0.000000000    -0.202029697     C.2   1  noname    0.508239
    5   C5         0.612536727     0.000000000     0.059984172     C.2   1  noname   -0.057458
    6   C6         1.042216669     0.000000000     1.399581570     C.2   1  noname   -0.183132
    7   C7         1.506354771     0.000000000    -1.070615447     C.2   1  noname   -0.019992
    8   C8         1.014290373     0.000000000    -2.331522451     C.2   1  noname   -0.520934
    9   C9        -0.422011716     0.000000000    -2.600886035     C.2   1  noname    0.946263
   10   O10       -0.935603132     0.000000000    -3.702761061     O.2   1  noname   -0.601431
   11   O11       -1.259538960     0.000000000    -1.484504542     O.3   1  noname   -0.500956
   12   H12        0.455622206     0.000000000     3.467303308       H   1  noname    0.156978
   13   H13       -1.981208645     0.000000000     2.959283900       H   1  noname    0.144345
   14   H14       -2.763349042     0.000000000     0.583190408       H   1  noname    0.222334
   15   H15        2.109876255     0.000000000     1.611433707       H   1  noname    0.168434
   16   H16        2.581002844     0.000000000    -0.895564692       H   1  noname    0.166916
   17   H17        1.653484945     0.000000000    -3.207899946       H   1  noname    0.213475


@<TRIPOS>BOND
    1      1      2    2
    2      2      3    1
    3      3      4    2
    4      4      5    1
    5      5      6    2
    6      5      7    1
    7      7      8    2
    8      8      9    1
    9      9     10    2
   10      9     11    1
   11      6      1    1
   12     11      4    1
   13      1     12    1
   14      2     13    1
   15      3     14    1
   16      6     15    1
   17      7     16    1
   18      8     17    1
#
#	File Created by: Spartan'20 Export
#

@<TRIPOS>MOLECULE
M0413
24 26
SMALL
USER_CHARGES


@<TRIPOS>ATOM
    1   C1        -3.557929812     0.000000000    -0.268409583     C.2   1  noname   -0.066032
    2   C2        -2.880253518     0.000000000    -1.501083436     C.2   1  noname   -0.182273
    3   C3        -1.496233362     0.000000000    -1.541659767     C.2   1  noname   -0.190264
    4   C4        -0.726448351     0.000000000    -0.354654727     C.2   1  noname    0.005344
    5   C5        -1.419815856     0.000000000     0.892770225     C.2   1  noname    0.275977
    6   C6        -2.832756644     0.000000000     0.908201909     C.2   1  noname   -0.331666
    7   C7        -0.681750046     0.000000000     2.119399809     C.2   1  noname   -0.298842
    8   C8         0.681989125     0.000000000     2.119503561     C.2   1  noname   -0.298920
    9   C9         1.419724730     0.000000000     0.892946074     C.2   1  noname    0.276196
   10   C10        0.726184070     0.000000000    -0.354490980     C.2   1  noname    0.005071
   11   C11        1.496073566     0.000000000    -1.541423491     C.2   1  noname   -0.190182
   12   C12        2.880333588     0.000000000    -1.500956296     C.2   1  noname   -0.182433
   13   C13        3.557995343     0.000000000    -0.268373183     C.2   1  noname   -0.065856
   14   C14        2.832844021     0.000000000     0.908186375     C.2   1  noname   -0.331820
   15   H15       -4.644725494     0.000000000    -0.242011980       H   1  noname    0.132127
   16   H16       -3.445281791     0.000000000    -2.430105465       H   1  noname    0.146664
   17   H17       -1.007385937     0.000000000    -2.510910619       H   1  noname    0.155012
   18   H18       -3.345769431     0.000000000     1.868708684       H   1  noname    0.171927
   19   H19       -1.232253504     0.000000000     3.058940614       H   1  noname    0.182108
   20   H20        1.232355716     0.000000000     3.059182851       H   1  noname    0.182154
   21   H21        1.006913102     0.000000000    -2.510451572       H   1  noname    0.154975
   22   H22        3.445416410     0.000000000    -2.429966338       H   1  noname    0.146699
   23   H23        4.644789496     0.000000000    -0.241981744       H   1  noname    0.132106
   24   H24        3.345984579     0.000000000     1.868639080       H   1  noname    0.171929


@<TRIPOS>BOND
    1      1      2    2
    2      2      3    1
    3      3      4    2
    4      4      5    1
    5      5      6    2
    6      5      7    1
    7      7      8    2
    8      8      9    1
    9      9     10    2
   10     10     11    1
   11     11     12    2
   12     12     13    1
   13     13     14    2
   14      6      1    1
   15     10      4    1
   16     14      9    1
   17      1     15    1
   18      2     16    1
   19      3     17    1
   20      6     18    1
   21      7     19    1
   22      8     20    1
   23     11     21    1
   24     12     22    1
   25     13     23    1
   26     14     24    1
#
#	File Created by: Spartan'20 Export
#

@<TRIPOS>MOLECULE
M0414
23 25
SMALL
USER_CHARGES


@<TRIPOS>ATOM
    1   C1        -0.392062209     0.000000000    -3.472083476     C.2   1  noname   -0.000066
    2   C2        -1.616144395     0.000000000    -2.774607958     C.2   1  noname   -0.264566
    3   C3        -1.638376905     0.000000000    -1.390034974     C.2   1  noname   -0.002599
    4   C4        -0.429878307     0.000000000    -0.659821236     C.2   1  noname   -0.244004
    5   C5         0.809580190     0.000000000    -1.358279208     C.2   1  noname    0.405375
    6   C6         0.801528199     0.000000000    -2.772381858     C.2   1  noname   -0.402815
    7   C7         2.039015490     0.000000000    -0.621574949     C.2   1  noname   -0.389721
    8   C8         2.049842974     0.000000000     0.744725690     C.2   1  noname   -0.191918
    9   C9         0.822550214     0.000000000     1.482352870     C.2   1  noname   -0.044574
   10   C10       -0.418850347     0.000000000     0.787481909     C.2   1  noname    0.501989
   11   N11       -1.617581834     0.000000000     1.431260886     N.2   1  noname   -0.581063
   12   C12       -1.608233645     0.000000000     2.763129871     C.2   1  noname    0.278086
   13   C13       -0.433795969     0.000000000     3.539283855     C.2   1  noname   -0.362597
   14   C14        0.787094229     0.000000000     2.893034775     C.2   1  noname   -0.047330
   15   H15       -0.385968446     0.000000000    -4.559431928       H   1  noname    0.123239
   16   H16       -2.551880544     0.000000000    -3.328697194       H   1  noname    0.155908
   17   H17       -2.574245490     0.000000000    -0.839729971       H   1  noname    0.116028
   18   H18        1.751266713     0.000000000    -3.305111487       H   1  noname    0.180811
   19   H19        2.976609091     0.000000000    -1.175775403       H   1  noname    0.198085
   20   H20        2.991274903     0.000000000     1.291938911       H   1  noname    0.168286
   21   H21       -2.584768281     0.000000000     3.245683605       H   1  noname    0.084982
   22   H22       -0.496984755     0.000000000     4.624046686       H   1  noname    0.173002
   23   H23        1.720009125     0.000000000     3.454590583       H   1  noname    0.145460


@<TRIPOS>BOND
    1      1      2    2
    2      2      3    1
    3      3      4    2
    4      4      5    1
    5      5      6    2
    6      5      7    1
    7      7      8    2
    8      8      9    1
    9      9     10    2
   10     10     11    1
   11     11     12    2
   12     12     13    1
   13     13     14    2
   14      6      1    1
   15     10      4    1
   16     14      9    1
   17      1     15    1
   18      2     16    1
   19      3     17    1
   20      6     18    1
   21      7     19    1
   22      8     20    1
   23     12     21    1
   24     13     22    1
   25     14     23    1
#
#	File Created by: Spartan'20 Export
#

@<TRIPOS>MOLECULE
M0415
17 18
SMALL
USER_CHARGES


@<TRIPOS>ATOM
    1   C1         0.562083247     0.000000000     2.345060933     C.2   1  noname   -0.182244
    2   C2        -0.853241429     0.000000000     2.324262090     C.2   1  noname   -0.040545
    3   C3        -1.534226724     0.000000000     1.124668017     C.2   1  noname   -0.441124
    4   C4        -0.823310710     0.000000000    -0.100923320     C.2   1  noname    0.642969
    5   C5         0.607552543     0.000000000    -0.080443375     C.2   1  noname   -0.037745
    6   C6         1.281064798     0.000000000     1.167330826     C.2   1  noname   -0.230575
    7   C7         1.281553481     0.000000000    -1.325850741     C.2   1  noname   -0.065092
    8   C8         0.542147763     0.000000000    -2.488075282     C.2   1  noname   -0.389818
    9   C9        -0.870441693     0.000000000    -2.402119066     C.2   1  noname    0.333760
   10   N10       -1.549598472     0.000000000    -1.261577304     N.2   1  noname   -0.665512
   11   H11        1.085070765     0.000000000     3.298343352       H   1  noname    0.150702
   12   H12       -1.404178030     0.000000000     3.261480020       H   1  noname    0.136821
   13   H13       -2.620092850     0.000000000     1.079277992       H   1  noname    0.207269
   14   H14        2.369732453     0.000000000     1.182521095       H   1  noname    0.166019
   15   H15        2.370171170     0.000000000    -1.350135094       H   1  noname    0.155462
   16   H16        1.025018673     0.000000000    -3.461510559       H   1  noname    0.179285
   17   H17       -1.469304985     0.000000000    -3.312309584       H   1  noname    0.080369


@<TRIPOS>BOND
    1      1      2    2
    2      2      3    1
    3      3      4    2
    4      4      5    1
    5      5      6    2
    6      5      7    1
    7      7      8    2
    8      8      9    1
    9      9     10    2
   10      6      1    1
   11     10      4    1
   12      1     11    1
   13      2     12    1
   14      3     13    1
   15      6     14    1
   16      7     15    1
   17      8     16    1
   18      9     17    1
#
#	File Created by: Spartan'20 Export
#

@<TRIPOS>MOLECULE
M0416
23 25
SMALL
USER_CHARGES


@<TRIPOS>ATOM
    1   C1        -0.103219284     0.000000000     3.501149039     C.2   1  noname   -0.096536
    2   C2        -1.354054154     0.000000000     2.853637506     C.2   1  noname   -0.113611
    3   C3        -1.435357126     0.000000000     1.470615846     C.2   1  noname   -0.273870
    4   C4        -0.263648947     0.000000000     0.680430941     C.2   1  noname    0.229109
    5   C5         0.993479924     0.000000000     1.341211984     C.2   1  noname    0.026945
    6   C6         1.058376032     0.000000000     2.751206609     C.2   1  noname   -0.249676
    7   C7         2.187990651     0.000000000     0.548220718     C.2   1  noname    0.136700
    8   N8         2.219238613     0.000000000    -0.761916867     N.2   1  noname   -0.615742
    9   C9         1.003248442     0.000000000    -1.427812717     C.2   1  noname    0.642813
   10   C10       -0.257344345     0.000000000    -0.765946212     C.2   1  noname   -0.263378
   11   C11       -1.428673537     0.000000000    -1.558313282     C.2   1  noname   -0.090030
   12   C12       -1.350661557     0.000000000    -2.941518981     C.2   1  noname   -0.251795
   13   C13       -0.101271619     0.000000000    -3.589513914     C.2   1  noname    0.000203
   14   C14        1.059802052     0.000000000    -2.837952832     C.2   1  noname   -0.435835
   15   H15       -0.054418277     0.000000000     4.586911087       H   1  noname    0.133086
   16   H16       -2.266404278     0.000000000     3.445012809       H   1  noname    0.140727
   17   H17       -2.414321225     0.000000000     1.000687207       H   1  noname    0.171565
   18   H18        2.032527688     0.000000000     3.237190524       H   1  noname    0.160646
   19   H19        3.153992827     0.000000000     1.058063467       H   1  noname    0.125213
   20   H20       -2.407357752     0.000000000    -1.086857323       H   1  noname    0.141705
   21   H21       -2.264797003     0.000000000    -3.530054863       H   1  noname    0.155240
   22   H22       -0.050861567     0.000000000    -4.675160328       H   1  noname    0.126317
   23   H23        2.043734441     0.000000000    -3.299290419       H   1  noname    0.200204


@<TRIPOS>BOND
    1      1      2    2
    2      2      3    1
    3      3      4    2
    4      4      5    1
    5      5      6    2
    6      5      7    1
    7      7      8    2
    8      8      9    1
    9      9     10    2
   10     10     11    1
   11     11     12    2
   12     12     13    1
   13     13     14    2
   14      6      1    1
   15     10      4    1
   16     14      9    1
   17      1     15    1
   18      2     16    1
   19      3     17    1
   20      6     18    1
   21      7     19    1
   22     11     20    1
   23     12     21    1
   24     13     22    1
   25     14     23    1
#
#	File Created by: Spartan'20 Export
#

@<TRIPOS>MOLECULE
M0417
16 17
SMALL
USER_CHARGES


@<TRIPOS>ATOM
    1   C1         0.587018031     0.000000000    -2.136322672     C.2   1  noname   -0.196328
    2   C2        -0.829258882     0.000000000    -2.097685246     C.2   1  noname    0.004285
    3   C3        -1.501604123     0.000000000    -0.892708313     C.2   1  noname   -0.493156
    4   C4        -0.768997867     0.000000000     0.318762200     C.2   1  noname    0.784647
    5   C5         0.653475080     0.000000000     0.276907133     C.2   1  noname   -0.276828
    6   C6         1.324248872     0.000000000    -0.969954303     C.2   1  noname   -0.155179
    7   C7         1.311523239     0.000000000     1.531629139     C.2   1  noname    0.372102
    8   N8         0.663414295     0.000000000     2.685488505     N.2   1  noname   -0.705659
    9   C9        -0.701533993     0.000000000     2.601701141     C.2   1  noname    0.650811
   10   N10       -1.445222534     0.000000000     1.509131904     N.2   1  noname   -0.792885
   11   H11        1.094670254     0.000000000    -3.097816932       H   1  noname    0.149907
   12   H12       -1.388413959     0.000000000    -3.030235451       H   1  noname    0.136914
   13   H13       -2.586927500     0.000000000    -0.836251513       H   1  noname    0.222122
   14   H14        2.412634949     0.000000000    -0.995134398       H   1  noname    0.156469
   15   H15        2.402302272     0.000000000     1.578240232       H   1  noname    0.095106
   16   H16       -1.227328132     0.000000000     3.554248573       H   1  noname    0.047671


@<TRIPOS>BOND
    1      1      2    2
    2      2      3    1
    3      3      4    2
    4      4      5    1
    5      5      6    2
    6      5      7    1
    7      7      8    2
    8      8      9    1
    9      9     10    2
   10      6      1    1
   11     10      4    1
   12      1     11    1
   13      2     12    1
   14      3     13    1
   15      6     14    1
   16      7     15    1
   17      9     16    1
#
#	File Created by: Spartan'20 Export
#

@<TRIPOS>MOLECULE
M0418
22 24
SMALL
USER_CHARGES


@<TRIPOS>ATOM
    1   C1        -3.568653463     0.000000000    -0.712152929     C.2   1  noname   -0.139630
    2   C2        -3.568819345     0.000000000     0.711900810     C.2   1  noname   -0.139593
    3   C3        -2.388382799     0.000000000     1.416874050     C.2   1  noname   -0.322798
    4   C4        -1.146014114     0.000000000     0.722008611     C.2   1  noname    0.392009
    5   C5        -1.145890190     0.000000000    -0.721632431     C.2   1  noname    0.391972
    6   C6        -2.388058747     0.000000000    -1.416788901     C.2   1  noname   -0.322716
    7   N7         0.000221584     0.000000000    -1.435853156     N.2   1  noname   -0.579158
    8   C8         1.146175056     0.000000000    -0.721598189     C.2   1  noname    0.392139
    9   C9         2.388067560     0.000000000    -1.416920316     C.2   1  noname   -0.322688
   10   C10        3.568481959     0.000000000    -0.712224732     C.2   1  noname   -0.139644
   11   C11        3.568637927     0.000000000     0.711921591     C.2   1  noname   -0.139666
   12   C12        2.388334963     0.000000000     1.417000922     C.2   1  noname   -0.322759
   13   C13        1.146197856     0.000000000     0.722012107     C.2   1  noname    0.392048
   14   N14        0.000108630     0.000000000     1.436254213     N.2   1  noname   -0.579168
   15   H15       -4.516557793     0.000000000    -1.244755849       H   1  noname    0.163063
   16   H16       -4.516852601     0.000000000     1.244305627       H   1  noname    0.163063
   17   H17       -2.362019251     0.000000000     2.503532252       H   1  noname    0.196854
   18   H18       -2.361380839     0.000000000    -2.503449024       H   1  noname    0.196830
   19   H19        2.361293485     0.000000000    -2.503544279       H   1  noname    0.196859
   20   H20        4.516474173     0.000000000    -1.244729866       H   1  noname    0.163044
   21   H21        4.516769407     0.000000000     1.244218820       H   1  noname    0.163058
   22   H22        2.361866544     0.000000000     2.503620670       H   1  noname    0.196883


@<TRIPOS>BOND
    1      1      2    2
    2      2      3    1
    3      3      4    2
    4      4      5    1
    5      5      6    2
    6      5      7    1
    7      7      8    2
    8      8      9    1
    9      9     10    2
   10     10     11    1
   11     11     12    2
   12     12     13    1
   13     13     14    2
   14      6      1    1
   15     14      4    1
   16     13      8    1
   17      1     15    1
   18      2     16    1
   19      3     17    1
   20      6     18    1
   21      9     19    1
   22     10     20    1
   23     11     21    1
   24     12     22    1
#
#	File Created by: Spartan'20 Export
#

@<TRIPOS>MOLECULE
M0419
14 15
SMALL
USER_CHARGES


@<TRIPOS>ATOM
    1   C1         0.341062025     0.000000000    -1.903688945     C.2   1  noname   -0.030124
    2   C2        -1.050902819     0.000000000    -1.680234409     C.2   1  noname   -0.229119
    3   C3        -1.573764512     0.000000000    -0.392453075     C.2   1  noname   -0.213286
    4   C4        -0.672423227     0.000000000     0.680325370     C.2   1  noname   -0.025209
    5   C5         0.727610338     0.000000000     0.466253678     C.2   1  noname    0.537958
    6   C6         1.235261119     0.000000000    -0.843923194     C.2   1  noname   -0.425588
    7   N7         1.504695153     0.000000000     1.615601272     N.2   1  noname   -0.575202
    8   C8         0.727290050     0.000000000     2.666293661     C.2   1  noname    0.132640
    9   S9        -0.994356948     0.000000000     2.386255200     S.3   1  noname   -0.047453
   10   H10        0.716610503     0.000000000    -2.923408454       H   1  noname    0.131841
   11   H11       -1.728774869     0.000000000    -2.529934396       H   1  noname    0.161360
   12   H12       -2.647639019     0.000000000    -0.225374396       H   1  noname    0.199642
   13   H13        2.310505741     0.000000000    -0.999072004       H   1  noname    0.215757
   14   H14        1.104826464     0.000000000     3.683359692       H   1  noname    0.166783


@<TRIPOS>BOND
    1      1      2    2
    2      2      3    1
    3      3      4    2
    4      4      5    1
    5      5      6    2
    6      5      7    1
    7      7      8    2
    8      8      9    1
    9      6      1    1
   10      9      4    1
   11      1     10    1
   12      2     11    1
   13      3     12    1
   14      6     13    1
   15      8     14    1
#
#	File Created by: Spartan'20 Export
#

@<TRIPOS>MOLECULE
M0420
18 19
SMALL
USER_CHARGES


@<TRIPOS>ATOM
    1   C1         2.432457917     0.000000000     0.707276105     C.2   1  noname   -0.120031
    2   C2         2.432471926     0.000000000    -0.707312328     C.2   1  noname   -0.120044
    3   C3         1.241527444     0.000000000    -1.403433888     C.2   1  noname   -0.371330
    4   C4         0.000018319     0.000000000    -0.716337509     C.2   1  noname    0.301981
    5   C5        -1.241500507     0.000000000    -1.403433475     C.2   1  noname   -0.371351
    6   C6        -2.432462080     0.000000000    -0.707298316     C.2   1  noname   -0.120039
    7   C7        -2.432467687     0.000000000     0.707282141     C.2   1  noname   -0.120032
    8   C8        -1.241531640     0.000000000     1.403445221     C.2   1  noname   -0.371350
    9   C9         0.000006613     0.000000000     0.716389825     C.2   1  noname    0.301986
   10   C10        1.241530636     0.000000000     1.403438422     C.2   1  noname   -0.371349
   11   H11        3.377044493     0.000000000     1.246239540       H   1  noname    0.149865
   12   H12        3.377064900     0.000000000    -1.246264853       H   1  noname    0.149873
   13   H13        1.240670777     0.000000000    -2.492524690       H   1  noname    0.190518
   14   H14       -1.240705452     0.000000000    -2.492533197       H   1  noname    0.190522
   15   H15       -3.377043260     0.000000000    -1.246263637       H   1  noname    0.149871
   16   H16       -3.377048292     0.000000000     1.246245408       H   1  noname    0.149869
   17   H17       -1.240817878     0.000000000     2.492549648       H   1  noname    0.190520
   18   H18        1.240783771     0.000000000     2.492535583       H   1  noname    0.190520


@<TRIPOS>BOND
    1      1      2    2
    2      2      3    1
    3      3      4    2
    4      4      5    1
    5      5      6    2
    6      6      7    1
    7      7      8    2
    8      8      9    1
    9      9     10    2
   10     10      1    1
   11      9      4    1
   12      1     11    1
   13      2     12    1
   14      3     13    1
   15      5     14    1
   16      6     15    1
   17      7     16    1
   18      8     17    1
   19     10     18    1
#
#	File Created by: Spartan'20 Export
#

@<TRIPOS>MOLECULE
M0421
17 18
SMALL
USER_CHARGES


@<TRIPOS>ATOM
    1   C1         0.644538452     0.000000000    -2.239655079     C.2   1  noname   -0.039030
    2   C2        -0.771350448     0.000000000    -2.233138557     C.2   1  noname   -0.145107
    3   C3        -1.465831868     0.000000000    -1.041260150     C.2   1  noname   -0.225144
    4   C4        -0.762000291     0.000000000     0.188147530     C.2   1  noname   -0.117146
    5   C5        -1.421792692     0.000000000     1.445538389     C.2   1  noname    0.265162
    6   N6        -0.802685504     0.000000000     2.618038628     N.2   1  noname   -0.620719
    7   C7         0.563420022     0.000000000     2.598608068     C.2   1  noname    0.410428
    8   C8         1.316184802     0.000000000     1.443736746     C.2   1  noname   -0.686830
    9   C9         0.665308501     0.000000000     0.186054947     C.2   1  noname    0.569247
   10   C10        1.351527843     0.000000000    -1.054855435     C.2   1  noname   -0.444986
   11   H11        1.176330908     0.000000000    -3.187934885       H   1  noname    0.136595
   12   H12       -1.311350785     0.000000000    -3.176665543       H   1  noname    0.140524
   13   H13       -2.554360390     0.000000000    -1.032397587       H   1  noname    0.164345
   14   H14       -2.512868168     0.000000000     1.475187297       H   1  noname    0.092353
   15   H15        1.041930217     0.000000000     3.575395531       H   1  noname    0.066501
   16   H16        2.403009534     0.000000000     1.496300529       H   1  noname    0.229871
   17   H17        2.439989868     0.000000000    -1.061100427       H   1  noname    0.203937


@<TRIPOS>BOND
    1      1      2    2
    2      2      3    1
    3      3      4    2
    4      4      5    1
    5      5      6    2
    6      6      7    1
    7      7      8    2
    8      8      9    1
    9      9     10    2
   10     10      1    1
   11      9      4    1
   12      1     11    1
   13      2     12    1
   14      3     13    1
   15      5     14    1
   16      7     15    1
   17      8     16    1
   18     10     17    1
#
#	File Created by: Spartan'20 Export
#

@<TRIPOS>MOLECULE
M0422
16 17
SMALL
USER_CHARGES


@<TRIPOS>ATOM
    1   C1         0.707891390     0.000000000    -2.019039617     C.2   1  noname   -0.061316
    2   C2        -0.707853449     0.000000000    -2.018997847     C.2   1  noname   -0.061259
    3   C3        -1.413312119     0.000000000    -0.831581160     C.2   1  noname   -0.371612
    4   C4        -0.708769219     0.000000000     0.394519782     C.2   1  noname    0.196518
    5   C5        -1.330141970     0.000000000     1.670458102     C.2   1  noname    0.070620
    6   N6        -0.687357008     0.000000000     2.829848858     N.2   1  noname   -0.268242
    7   N7         0.687284987     0.000000000     2.829841798     N.2   1  noname   -0.268265
    8   C8         1.330111737     0.000000000     1.670436531     C.2   1  noname    0.070634
    9   C9         0.708794929     0.000000000     0.394480968     C.2   1  noname    0.196400
   10   C10        1.413334225     0.000000000    -0.831668675     C.2   1  noname   -0.371510
   11   H11        1.241173440     0.000000000    -2.966508779       H   1  noname    0.137498
   12   H12       -1.241157259     0.000000000    -2.966460208       H   1  noname    0.137481
   13   H13       -2.501662716     0.000000000    -0.828465986       H   1  noname    0.199060
   14   H14       -2.417406074     0.000000000     1.750838209       H   1  noname    0.097477
   15   H15        2.417379039     0.000000000     1.750884792       H   1  noname    0.097476
   16   H16        2.501690065     0.000000000    -0.828586770       H   1  noname    0.199041


@<TRIPOS>BOND
    1      1      2    2
    2      2      3    1
    3      3      4    2
    4      4      5    1
    5      5      6    2
    6      6      7    1
    7      7      8    2
    8      8      9    1
    9      9     10    2
   10     10      1    1
   11      9      4    1
   12      1     11    1
   13      2     12    1
   14      3     13    1
   15      5     14    1
   16      8     15    1
   17     10     16    1
#
#	File Created by: Spartan'20 Export
#

@<TRIPOS>MOLECULE
M0423
14 14
SMALL
USER_CHARGES


@<TRIPOS>ATOM
    1   C1         0.684543847     0.000000000    -1.492336379     C.2   1  noname   -0.145782
    2   C2        -0.684539557     0.000000000    -1.492334940     C.2   1  noname   -0.145782
    3   C3        -1.565462766     0.000000000    -0.364678565     C.2   1  noname    0.043083
    4   C4        -1.282573742     0.000000000     0.972128059     C.2   1  noname   -0.432378
    5   C5        -0.000000957     0.000000000     1.682365863     C.2   1  noname    0.873959
    6   O6        -0.000000767     0.000000000     2.928695901     O.2   1  noname   -0.652072
    7   C7         1.282571927     0.000000000     0.972125863     C.2   1  noname   -0.432377
    8   C8         1.565464933     0.000000000    -0.364679809     C.2   1  noname    0.043083
    9   H9         1.170385475     0.000000000    -2.466482769       H   1  noname    0.132099
   10   H10       -1.170385379     0.000000000    -2.466480151       H   1  noname    0.132098
   11   H11       -2.625641584     0.000000000    -0.615477511       H   1  noname    0.114851
   12   H12       -2.125543388     0.000000000     1.661314794       H   1  noname    0.177184
   13   H13        2.125538511     0.000000000     1.661315760       H   1  noname    0.177183
   14   H14        2.625643446     0.000000000    -0.615476117       H   1  noname    0.114851


@<TRIPOS>BOND
    1      1      2    2
    2      2      3    1
    3      3      4    2
    4      4      5    1
    5      5      6    2
    6      5      7    1
    7      7      8    2
    8      8      1    1
    9      1      9    1
   10      2     10    1
   11      3     11    1
   12      4     12    1
   13      7     13    1
   14      8     14    1
#
#	File Created by: Spartan'20 Export
#

@<TRIPOS>MOLECULE
M0424
12 12
SMALL
USER_CHARGES


@<TRIPOS>ATOM
    1   C1        -1.209703643     0.000000000     0.698414211     C.2   1  noname   -0.136606
    2   C2        -1.209703116     0.000000000    -0.698415859     C.2   1  noname   -0.136594
    3   C3        -0.000000328     0.000000000    -1.396803719     C.2   1  noname   -0.136985
    4   C4         1.209696716     0.000000000    -0.698414756     C.2   1  noname   -0.136593
    5   C5         1.209695372     0.000000000     0.698410568     C.2   1  noname   -0.136604
    6   C6        -0.000001602     0.000000000     1.396793550     C.2   1  noname   -0.136971
    7   H7        -2.151073422     0.000000000     1.241987928       H   1  noname    0.136670
    8   H8        -2.151076608     0.000000000    -1.241978052       H   1  noname    0.136668
    9   H9         0.000004427     0.000000000    -2.483832435       H   1  noname    0.136843
   10   H10        2.151080884     0.000000000    -1.241966950       H   1  noname    0.136666
   11   H11        2.151074471     0.000000000     1.241977750       H   1  noname    0.136668
   12   H12        0.000006849     0.000000000     2.483827764       H   1  noname    0.136838


@<TRIPOS>BOND
    1      1      2    2
    2      2      3    1
    3      3      4    2
    4      4      5    1
    5      5      6    2
    6      6      1    1
    7      1      7    1
    8      2      8    1
    9      3      9    1
   10      4     10    1
   11      5     11    1
   12      6     12    1
#
#	File Created by: Spartan'20 Export
#

@<TRIPOS>MOLECULE
M0425
12 12
SMALL
USER_CHARGES


@<TRIPOS>ATOM
    1   C1        -0.000004459     0.000000000    -1.450120048     C.2   1  noname   -0.194901
    2   C2        -1.193806811     0.000000000    -0.725392168     C.2   1  noname   -0.077989
    3   C3        -1.187342418     0.000000000     0.656834577     C.2   1  noname   -0.240832
    4   N4         0.000003446     0.000000000     1.366025830       N   1  noname    0.592267
    5   O5        -0.000004260     0.000000000     2.633216053       O   1  noname   -0.634609
    6   C6         1.187352712     0.000000000     0.656837302     C.2   1  noname   -0.240834
    7   C7         1.193814693     0.000000000    -0.725397827     C.2   1  noname   -0.077994
    8   H8        -0.000013821     0.000000000    -2.535094032       H   1  noname    0.164703
    9   H9        -2.155655844     0.000000000    -1.230524570       H   1  noname    0.153851
   10   H10       -2.064699271     0.000000000     1.292064525       H   1  noname    0.201242
   11   H11        2.064694193     0.000000000     1.292084351       H   1  noname    0.201244
   12   H12        2.155661840     0.000000000    -1.230533993       H   1  noname    0.153854


@<TRIPOS>BOND
    1      1      2    2
    2      2      3    1
    3      3      4    2
    4      4      5    1
    5      4      6    1
    6      6      7    2
    7      7      1    1
    8      1      8    1
    9      2      9    1
   10      3     10    1
   11      6     11    1
   12      7     12    1
#
#	File Created by: Spartan'20 Export
#

@<TRIPOS>MOLECULE
M0426
11 11
SMALL
USER_CHARGES


@<TRIPOS>ATOM
    1   C1         0.981094237     0.000000000     0.744060724     C.2   1  noname    0.251338
    2   C2        -0.282556564     0.000000000     1.337655235     C.2   1  noname   -0.519865
    3   C3        -1.403899678     0.000000000     0.509971070     C.2   1  noname    0.424462
    4   N4        -1.335508225     0.000000000    -0.836368187     N.2   1  noname   -0.622104
    5   C5        -0.117993091     0.000000000    -1.370293600     C.2   1  noname    0.578868
    6   C6         1.076924948     0.000000000    -0.645815977     C.2   1  noname   -0.516126
    7   Br7       -0.029370622     0.000000000    -3.281534057      Br   1  noname   -0.141985
    8   H8         1.882084455     0.000000000     1.351893787       H   1  noname    0.096904
    9   H9        -0.397721807     0.000000000     2.417230847       H   1  noname    0.195238
   10   H10       -2.409214069     0.000000000     0.925129602       H   1  noname    0.061393
   11   H11        2.036160415     0.000000000    -1.151929443       H   1  noname    0.191878


@<TRIPOS>BOND
    1      1      2    2
    2      2      3    1
    3      3      4    2
    4      4      5    1
    5      5      6    2
    6      5      7    1
    7      6      1    1
    8      1      8    1
    9      2      9    1
   10      3     10    1
   11      6     11    1
#
#	File Created by: Spartan'20 Export
#

@<TRIPOS>MOLECULE
M0427
12 12
SMALL
USER_CHARGES


@<TRIPOS>ATOM
    1   C1         1.003338128     0.000000000    -1.024171968     C.2   1  noname    0.205298
    2   C2        -0.250171501     0.000000000    -1.634893748     C.2   1  noname   -0.434020
    3   C3        -1.390985088     0.000000000    -0.827916371     C.2   1  noname    0.341235
    4   N4        -1.358116757     0.000000000     0.514531831     N.2   1  noname   -0.592469
    5   C5        -0.134475580     0.000000000     1.082986750     C.2   1  noname    0.664646
    6   C6         1.069777080     0.000000000     0.367508678     C.2   1  noname   -0.555823
    7   C7        -0.105575402     0.000000000     2.525951868     C.1   1  noname    0.099977
    8   N8        -0.034453584     0.000000000     3.707265553     N.1   1  noname   -0.349192
    9   H9         1.913222771     0.000000000    -1.618356786       H   1  noname    0.110331
   10   H10       -0.347196898     0.000000000    -2.716809025       H   1  noname    0.189798
   11   H11       -2.384828211     0.000000000    -1.270976958       H   1  noname    0.085118
   12   H12        2.019465042     0.000000000     0.894880175       H   1  noname    0.235101


@<TRIPOS>BOND
    1      1      2    2
    2      2      3    1
    3      3      4    2
    4      4      5    1
    5      5      6    2
    6      5      7    1
    7      7      8    3
    8      6      1    1
    9      1      9    1
   10      2     10    1
   11      3     11    1
   12      6     12    1
#
#	File Created by: Spartan'20 Export
#

@<TRIPOS>MOLECULE
M0428
11 11
SMALL
USER_CHARGES


@<TRIPOS>ATOM
    1   C1         0.968617604     0.000000000     0.746938023     C.2   1  noname    0.237069
    2   C2        -0.305457054     0.000000000     1.317129330     C.2   1  noname   -0.515705
    3   C3        -1.410512450     0.000000000     0.468817903     C.2   1  noname    0.420842
    4   N4        -1.318426840     0.000000000    -0.875162909     N.2   1  noname   -0.629790
    5   C5        -0.091665571     0.000000000    -1.389272206     C.2   1  noname    0.625201
    6   C6         1.087680384     0.000000000    -0.639971390     C.2   1  noname   -0.528893
    7   Cl7        0.020458222     0.000000000    -3.128227496      Cl   1  noname   -0.171706
    8   H8         1.858419083     0.000000000     1.370908002       H   1  noname    0.102457
    9   H9        -0.440931781     0.000000000     2.394316167       H   1  noname    0.194433
   10   H10       -2.423081665     0.000000000     0.866066978       H   1  noname    0.063786
   11   H11        2.054900068     0.000000000    -1.131542401       H   1  noname    0.202307


@<TRIPOS>BOND
    1      1      2    2
    2      2      3    1
    3      3      4    2
    4      4      5    1
    5      5      6    2
    6      5      7    1
    7      6      1    1
    8      1      8    1
    9      2      9    1
   10      3     10    1
   11      6     11    1
#
#	File Created by: Spartan'20 Export
#

@<TRIPOS>MOLECULE
M0429
11 11
SMALL
USER_CHARGES


@<TRIPOS>ATOM
    1   C1         0.981279344     0.000000000    -0.696940986     C.2   1  noname    0.261407
    2   C2        -0.287791204     0.000000000    -1.282991485     C.2   1  noname   -0.548226
    3   C3        -1.403172699     0.000000000    -0.449866036     C.2   1  noname    0.402482
    4   N4        -1.324806320     0.000000000     0.896905173     N.2   1  noname   -0.679780
    5   C5        -0.109429771     0.000000000     1.409973670     C.2   1  noname    0.891968
    6   C6         1.084517420     0.000000000     0.690086154     C.2   1  noname   -0.653527
    7   F7        -0.036806044     0.000000000     2.758694225       F   1  noname   -0.301599
    8   H8         1.877638621     0.000000000    -1.311061734       H   1  noname    0.106677
    9   H9        -0.408977989     0.000000000    -2.361566123       H   1  noname    0.201194
   10   H10       -2.410259801     0.000000000    -0.860317207       H   1  noname    0.079691
   11   H11        2.037808443     0.000000000     1.207084350       H   1  noname    0.239713


@<TRIPOS>BOND
    1      1      2    2
    2      2      3    1
    3      3      4    2
    4      4      5    1
    5      5      6    2
    6      5      7    1
    7      6      1    1
    8      1      8    1
    9      2      9    1
   10      3     10    1
   11      6     11    1
#
#	File Created by: Spartan'20 Export
#

@<TRIPOS>MOLECULE
M0430
13 13
SMALL
USER_CHARGES


@<TRIPOS>ATOM
    1   C1        -1.161587866     1.047864685    -0.045413729     C.2   1  noname    0.200223
    2   C2        -1.802799067    -0.192787568    -0.106213829     C.2   1  noname   -0.539306
    3   C3        -1.014305646    -1.337333709    -0.052820791     C.2   1  noname    0.344858
    4   N4         0.328244642    -1.321128437     0.046368467     N.2   1  noname   -0.710224
    5   C5         0.930630296    -0.122182474     0.107484682     C.2   1  noname    0.948446
    6   C6         0.220413494     1.091314140     0.073550395     C.2   1  noname   -0.669411
    7   N7         2.311893960    -0.143234005     0.290001707     N.3   1  noname   -0.989746
    8   H8        -1.734564063     1.971337586    -0.079600632       H   1  noname    0.121126
    9   H9        -2.881937289    -0.269026363    -0.194791378       H   1  noname    0.198552
   10   H10       -1.465795863    -2.327050092    -0.096360827       H   1  noname    0.092412
   11   H11        0.749062949     2.038800512     0.142781329       H   1  noname    0.229830
   12   H12        2.703708788    -1.052789288     0.066021409       H   1  noname    0.392069
   13   H13        2.817035666     0.616215013    -0.151006805       H   1  noname    0.381171


@<TRIPOS>BOND
    1      1      2    2
    2      2      3    1
    3      3      4    2
    4      4      5    1
    5      5      6    2
    6      5      7    1
    7      6      1    1
    8      1      8    1
    9      2      9    1
   10      3     10    1
   11      6     11    1
   12      7     12    1
   13      7     13    1
#
#	File Created by: Spartan'20 Export
#

@<TRIPOS>MOLECULE
M0431
20 21
SMALL
USER_CHARGES


@<TRIPOS>ATOM
    1   C1         1.179363821     0.000000000     2.840347005     C.2   1  noname    0.137235
    2   C2        -0.059338801     0.000000000     3.482761734     C.2   1  noname   -0.435079
    3   C3        -1.211938700     0.000000000     2.696141054     C.2   1  noname    0.356662
    4   N4        -1.196676458     0.000000000     1.353319015     N.2   1  noname   -0.607463
    5   C5         0.007632390     0.000000000     0.741576169     C.2   1  noname    0.421535
    6   C6         1.218360851     0.000000000     1.449075438     C.2   1  noname   -0.380634
    7   C7        -0.007949136     0.000000000    -0.741460070     C.2   1  noname    0.421592
    8   C8        -1.218531029     0.000000000    -1.449243278     C.2   1  noname   -0.380763
    9   C9        -1.179184091     0.000000000    -2.840492876     C.2   1  noname    0.137356
   10   C10        0.059579356     0.000000000    -3.482778697     C.2   1  noname   -0.435164
   11   C11        1.211989457     0.000000000    -2.695851336     C.2   1  noname    0.356695
   12   N12        1.196368758     0.000000000    -1.353073252     N.2   1  noname   -0.607443
   13   H13        2.102036722     0.000000000     3.415500504       H   1  noname    0.107567
   14   H14       -0.133968721     0.000000000     4.566488764       H   1  noname    0.175844
   15   H15       -2.198474390     0.000000000     3.156726036       H   1  noname    0.061762
   16   H16        2.153165445     0.000000000     0.899386565       H   1  noname    0.162550
   17   H17       -2.153720419     0.000000000    -0.900129020       H   1  noname    0.162592
   18   H18       -2.101804234     0.000000000    -3.415696021       H   1  noname    0.107525
   19   H19        0.134404591     0.000000000    -4.566484273       H   1  noname    0.175885
   20   H20        2.198684587     0.000000000    -3.156113465       H   1  noname    0.061746


@<TRIPOS>BOND
    1      1      2    2
    2      2      3    1
    3      3      4    2
    4      4      5    1
    5      5      6    2
    6      5      7    1
    7      7      8    2
    8      8      9    1
    9      9     10    2
   10     10     11    1
   11     11     12    2
   12      6      1    1
   13     12      7    1
   14      1     13    1
   15      2     14    1
   16      3     15    1
   17      6     16    1
   18      8     17    1
   19      9     18    1
   20     10     19    1
   21     11     20    1
#
#	File Created by: Spartan'20 Export
#

@<TRIPOS>MOLECULE
M0432
11 11
SMALL
USER_CHARGES


@<TRIPOS>ATOM
    1   C1        -0.000001774     0.000000000     1.197380234     C.2   1  noname    0.254019
    2   C2         1.197740837     0.000000000     0.483445784     C.2   1  noname   -0.533183
    3   C3         1.145421708     0.000000000    -0.911182284     C.2   1  noname    0.468650
    4   N4         0.000000828     0.000000000    -1.616525761     N.2   1  noname   -0.678369
    5   C5        -1.145423135     0.000000000    -0.911180726     C.2   1  noname    0.468648
    6   C6        -1.197741840     0.000000000     0.483446493     C.2   1  noname   -0.533182
    7   H7        -0.000000506     0.000000000     2.284513874       H   1  noname    0.088352
    8   H8         2.156687910     0.000000000     0.994102923       H   1  noname    0.188548
    9   H9         2.061661620     0.000000000    -1.499052163       H   1  noname    0.043984
   10   H10       -2.061659528     0.000000000    -1.499055419       H   1  noname    0.043985
   11   H11       -2.156686121     0.000000000     0.994107044       H   1  noname    0.188548


@<TRIPOS>BOND
    1      1      2    2
    2      2      3    1
    3      3      4    2
    4      4      5    1
    5      5      6    2
    6      6      1    1
    7      1      7    1
    8      2      8    1
    9      3      9    1
   10      5     10    1
   11      6     11    1
#
#	File Created by: Spartan'20 Export
#

@<TRIPOS>MOLECULE
M0433
10 10
SMALL
USER_CHARGES


@<TRIPOS>ATOM
    1   C1         0.693218871     0.000000000     0.816044391     C.2   1  noname   -0.157035
    2   C2        -0.693221672     0.000000000     0.816043348     C.2   1  noname   -0.157039
    3   C3        -1.326074166     0.000000000    -0.430007302     C.2   1  noname    0.212855
    4   N4        -0.674185620     0.000000000    -1.605553526     N.2   1  noname   -0.267023
    5   N5         0.674186750     0.000000000    -1.605549602     N.2   1  noname   -0.267022
    6   C6         1.326074297     0.000000000    -0.430008452     C.2   1  noname    0.212852
    7   H7         1.270889029     0.000000000     1.735961710       H   1  noname    0.145274
    8   H8        -1.270888613     0.000000000     1.735959877       H   1  noname    0.145275
    9   H9        -2.409727087     0.000000000    -0.516443033       H   1  noname    0.065932
   10   H10        2.409728210     0.000000000    -0.516447410       H   1  noname    0.065932


@<TRIPOS>BOND
    1      1      2    2
    2      2      3    1
    3      3      4    2
    4      4      5    1
    5      5      6    2
    6      6      1    1
    7      1      7    1
    8      2      8    1
    9      3      9    1
   10      6     10    1
#
#	File Created by: Spartan'20 Export
#

@<TRIPOS>MOLECULE
M0434
9 9
SMALL
USER_CHARGES


@<TRIPOS>ATOM
    1   C1         0.713542184     0.000000000     0.740737634     C.2   1  noname   -0.211939
    2   C2        -0.713474120     0.000000000     0.740661964     C.2   1  noname   -0.211861
    3   C3        -1.095693139     0.000000000    -0.571075015     C.2   1  noname   -0.024626
    4   O4         0.000054544     0.000000000    -1.387370448     O.3   1  noname   -0.206689
    5   C5         1.095745630     0.000000000    -0.571041304     C.2   1  noname   -0.024575
    6   H6         1.371963560     0.000000000     1.597627721       H   1  noname    0.169777
    7   H7        -1.372057078     0.000000000     1.597431062       H   1  noname    0.169736
    8   H8        -2.050852147     0.000000000    -1.073368360       H   1  noname    0.170093
    9   H9         2.050770565     0.000000000    -1.073603255       H   1  noname    0.170084


@<TRIPOS>BOND
    1      1      2    1
    2      2      3    2
    3      3      4    1
    4      4      5    1
    5      5      1    2
    6      1      6    1
    7      2      7    1
    8      3      8    1
    9      5      9    1
#
#	File Created by: Spartan'20 Export
#

@<TRIPOS>MOLECULE
M0435
9 9
SMALL
USER_CHARGES


@<TRIPOS>ATOM
    1   C1         0.709872181     0.000000000    -0.706078723     C.2   1  noname   -0.151355
    2   C2        -0.709870260     0.000000000    -0.706096338     C.2   1  noname   -0.151329
    3   C3        -1.235004354     0.000000000     0.566244264     C.2   1  noname   -0.207010
    4   S4         0.000006762     0.000000000     1.759328956     S.3   1  noname    0.049842
    5   C5         1.235013183     0.000000000     0.566276257     C.2   1  noname   -0.206998
    6   H6         1.322702861     0.000000000    -1.600685542       H   1  noname    0.150038
    7   H7        -1.322741868     0.000000000    -1.600678271       H   1  noname    0.150038
    8   H8        -2.276147829     0.000000000     0.860832475       H   1  noname    0.183387
    9   H9         2.276169325     0.000000000     0.860856921       H   1  noname    0.183387


@<TRIPOS>BOND
    1      1      2    1
    2      2      3    2
    3      3      4    1
    4      4      5    1
    5      5      1    2
    6      1      6    1
    7      2      7    1
    8      3      8    1
    9      5      9    1
#
#	File Created by: Spartan'20 Export
#

@<TRIPOS>MOLECULE
M0436
12 12
SMALL
USER_CHARGES


@<TRIPOS>ATOM
    1   C1        -1.199279499     0.000000000     0.670282753     C.2   1  noname   -0.143465
    2   C2        -1.186587899     0.000000000    -0.710542391     C.2   1  noname   -0.216020
    3   N3         0.000009144     0.000000000    -1.422044154       N   1  noname    0.560330
    4   O4        -0.000009845     0.000000000    -2.688006807       O   1  noname   -0.620026
    5   C5         1.186607267     0.000000000    -0.710560879     C.2   1  noname   -0.216011
    6   C6         1.199321790     0.000000000     0.670291215     C.2   1  noname   -0.143499
    7   C7        -0.000002980     0.000000000     1.383776285     C.2   1  noname    0.101993
    8   Cl8       -0.000118994     0.000000000     3.116141481      Cl   1  noname   -0.096036
    9   H9        -2.154587249     0.000000000     1.186419159       H   1  noname    0.177445
   10   H10       -2.067343199     0.000000000    -1.341042807       H   1  noname    0.208915
   11   H11        2.067329960     0.000000000    -1.341093410       H   1  noname    0.208914
   12   H12        2.154661504     0.000000000     1.186379554       H   1  noname    0.177462


@<TRIPOS>BOND
    1      1      2    2
    2      2      3    1
    3      3      4    1
    4      3      5    2
    5      5      6    1
    6      6      7    2
    7      7      8    1
    8      7      1    1
    9      1      9    1
   10      2     10    1
   11      5     11    1
   12      6     12    1
#
#	File Created by: Spartan'20 Export
#

@<TRIPOS>MOLECULE
M0437
14 14
SMALL
USER_CHARGES


@<TRIPOS>ATOM
    1   C1        -1.209567705     0.000000000     0.203785123     C.2   1  noname   -0.104514
    2   C2        -1.192311730     0.000000000    -1.172718455     C.2   1  noname   -0.226817
    3   N3        -0.000015456     0.000000000    -1.880618131       N   1  noname    0.586025
    4   O4        -0.000028478     0.000000000    -3.146041233       O   1  noname   -0.570910
    5   C5         1.192324234     0.000000000    -1.172780592     C.2   1  noname   -0.226791
    6   C6         1.209740268     0.000000000     0.203740970     C.2   1  noname   -0.104549
    7   C7         0.000074475     0.000000000     0.899255280     C.2   1  noname   -0.035681
    8   N8        -0.000104514     0.000000000     2.353066498       N   1  noname    0.756446
    9   O9        -1.103977423     0.000000000     2.927274134       O   1  noname   -0.443779
   10   O10        1.103618316     0.000000000     2.927565274     O.2   1  noname   -0.443763
   11   H11       -2.153414289     0.000000000     0.737374709       H   1  noname    0.196795
   12   H12       -2.069416642     0.000000000    -1.808418715       H   1  noname    0.210371
   13   H13        2.069343234     0.000000000    -1.808591783       H   1  noname    0.210360
   14   H14        2.153735708     0.000000000     0.737106920       H   1  noname    0.196807


@<TRIPOS>BOND
    1      1      2    2
    2      2      3    1
    3      3      4    1
    4      3      5    2
    5      5      6    1
    6      6      7    2
    7      7      8    1
    8      8      9    1
    9      8     10    2
   10      7      1    1
   11      1     11    1
   12      2     12    1
   13      5     13    1
   14      6     14    1
#
#	File Created by: Spartan'20 Export
#

@<TRIPOS>MOLECULE
M0438
12 12
SMALL
USER_CHARGES


@<TRIPOS>ATOM
    1   C1        -0.063560499     0.000001762    -1.726546634     C.2   1  noname   -0.720228
    2   C2        -0.043366185    -1.182631508    -0.991752601     C.2   1  noname    0.514696
    3   N3        -0.022142655    -1.206259295     0.347349502     N.2   1  noname   -0.812509
    4   C4        -0.022140449     0.000135492     0.950042919     C.2   1  noname    1.149970
    5   N5        -0.022245278     1.206472346     0.347225406     N.2   1  noname   -0.812184
    6   C6        -0.043617456     1.182717561    -0.991880471     C.2   1  noname    0.514445
    7   N7        -0.082122883     0.000179022     2.323503499     N.3   1  noname   -0.993342
    8   H8        -0.081018395    -0.000060166    -2.810887486       H   1  noname    0.219602
    9   H9        -0.041342355    -2.154596893    -1.483458370       H   1  noname    0.073431
   10   H10       -0.041901239     2.154633424    -1.483693954       H   1  noname    0.073462
   11   H11        0.231015107    -0.857099675     2.760118406       H   1  noname    0.396289
   12   H12        0.232442286     0.856507931     2.759979783       H   1  noname    0.396368


@<TRIPOS>BOND
    1      1      2    2
    2      2      3    1
    3      3      4    2
    4      4      5    1
    5      5      6    2
    6      4      7    1
    7      6      1    1
    8      1      8    1
    9      2      9    1
   10      6     10    1
   11      7     11    1
   12      7     12    1
#
#	File Created by: Spartan'20 Export
#

@<TRIPOS>MOLECULE
M0439
9 9
SMALL
USER_CHARGES


@<TRIPOS>ATOM
    1   C1         0.914190561     0.000000000     0.422959114     C.2   1  noname   -0.325447
    2   C2         0.795585599     0.000000000    -0.949593462     C.2   1  noname    0.127171
    3   N3        -0.527374812     0.000000000    -1.330775352     N.2   1  noname   -0.525036
    4   C4        -1.209507603     0.000000000    -0.194725532     C.2   1  noname    0.202436
    5   N5        -0.379791466     0.000000000     0.890294051   N.pl3   1  noname   -0.253256
    6   H6         1.766705919     0.000000000     1.085820786       H   1  noname    0.214393
    7   H7         1.589915476     0.000000000    -1.683500383       H   1  noname    0.116830
    8   H8        -2.287394012     0.000000000    -0.102624013       H   1  noname    0.120576
    9   H9        -0.662329661     0.000000000     1.862144791       H   1  noname    0.322334


@<TRIPOS>BOND
    1      1      2    2
    2      2      3    1
    3      3      4    2
    4      4      5    1
    5      5      1    1
    6      1      6    1
    7      2      7    1
    8      4      8    1
    9      5      9    1
#
#	File Created by: Spartan'20 Export
#

@<TRIPOS>MOLECULE
M0440
12 12
SMALL
USER_CHARGES


@<TRIPOS>ATOM
    1   C1        -1.206658458     0.000000000     0.134518391     C.2   1  noname   -0.575848
    2   C2        -1.147237758     0.000000000    -1.258157460     C.2   1  noname    0.452333
    3   N3        -0.000067304     0.000000000    -1.961899826     N.2   1  noname   -0.638251
    4   C4         1.147285294     0.000000000    -1.258515029     C.2   1  noname    0.449288
    5   C5         1.207173016     0.000000000     0.134152410     C.2   1  noname   -0.572118
    6   C6         0.000367482     0.000000000     0.845069376     C.2   1  noname    0.493959
    7   C7         0.000053742     0.000000000     2.281237601     C.1   1  noname    0.157307
    8   N8        -0.001511797     0.000000000     3.465415648     N.1   1  noname   -0.360621
    9   H9        -2.159611521     0.000000000     0.655365367       H   1  noname    0.233412
   10   H10       -2.063005694     0.000000000    -1.845577383       H   1  noname    0.063758
   11   H11        2.062866489     0.000000000    -1.846232837       H   1  noname    0.064447
   12   H12        2.160346509     0.000000000     0.654623742       H   1  noname    0.232334


@<TRIPOS>BOND
    1      1      2    2
    2      2      3    1
    3      3      4    2
    4      4      5    1
    5      5      6    2
    6      6      7    1
    7      7      8    3
    8      6      1    1
    9      1      9    1
   10      2     10    1
   11      4     11    1
   12      5     12    1
#
#	File Created by: Spartan'20 Export
#

@<TRIPOS>MOLECULE
M0441
11 11
SMALL
USER_CHARGES


@<TRIPOS>ATOM
    1   C1        -1.203232880     0.000000000    -0.423921981     C.2   1  noname   -0.539534
    2   C2        -1.143841790     0.000000000     0.970142047     C.2   1  noname    0.450191
    3   N3         0.000001555     0.000000000     1.677341994     N.2   1  noname   -0.664981
    4   C4         1.143810736     0.000000000     0.970136802     C.2   1  noname    0.450231
    5   C5         1.203274500     0.000000000    -0.423935275     C.2   1  noname   -0.539564
    6   C6         0.000016785     0.000000000    -1.124955953     C.2   1  noname    0.448600
    7   Cl7       -0.000131136     0.000000000    -2.860449199      Cl   1  noname   -0.135926
    8   H8        -2.155355848     0.000000000    -0.945078079       H   1  noname    0.204685
    9   H9        -2.062830090     0.000000000     1.552857219       H   1  noname    0.060808
   10   H10        2.062813876     0.000000000     1.552839893       H   1  noname    0.060788
   11   H11        2.155474293     0.000000000    -0.944977469       H   1  noname    0.204702


@<TRIPOS>BOND
    1      1      2    2
    2      2      3    1
    3      3      4    2
    4      4      5    1
    5      5      6    2
    6      6      7    1
    7      6      1    1
    8      1      8    1
    9      2      9    1
   10      4     10    1
   11      5     11    1
#
#	File Created by: Spartan'20 Export
#

@<TRIPOS>MOLECULE
M0442
13 13
SMALL
USER_CHARGES


@<TRIPOS>ATOM
    1   C1        -0.044314225     1.195727649    -0.013537488     C.2   1  noname   -0.734865
    2   C2        -0.027248147     1.139612021    -1.403502566     C.2   1  noname    0.482976
    3   N3        -0.017101380    -0.000004250    -2.118862180     N.2   1  noname   -0.708901
    4   C4        -0.027243750    -1.139618129    -1.403507354     C.2   1  noname    0.482984
    5   C5        -0.044309623    -1.195724995    -0.013540632     C.2   1  noname   -0.734872
    6   C6        -0.040704941     0.000003675     0.716958758     C.2   1  noname    0.824579
    7   N7        -0.123871905     0.000013100     2.107983857     N.3   1  noname   -0.938066
    8   H8        -0.055983423     2.156836571     0.496205960       H   1  noname    0.230224
    9   H9        -0.022101560     2.062064554    -1.982246554       H   1  noname    0.055940
   10   H10       -0.022087407    -2.062067812    -1.982251160       H   1  noname    0.055939
   11   H11       -0.055973155    -2.156835923     0.496196297       H   1  noname    0.230221
   12   H12        0.240520431     0.836214695     2.550049751       H   1  noname    0.376920
   13   H13        0.240419084    -0.836221155     2.550053312       H   1  noname    0.376923


@<TRIPOS>BOND
    1      1      2    2
    2      2      3    1
    3      3      4    2
    4      4      5    1
    5      5      6    2
    6      6      7    1
    7      6      1    1
    8      1      8    1
    9      2      9    1
   10      4     10    1
   11      5     11    1
   12      7     12    1
   13      7     13    1
#
#	File Created by: Spartan'20 Export
#

@<TRIPOS>MOLECULE
M0443
23 24
SMALL
USER_CHARGES


@<TRIPOS>ATOM
    1   C1         1.193251609     0.104814474     1.717211915     C.2   1  noname   -0.726273
    2   C2         1.132220497     0.098535584     3.106069354     C.2   1  noname    0.513753
    3   N3         0.000034880    -0.000160110     3.827356368     N.2   1  noname   -0.739694
    4   C4        -1.132178331    -0.098703326     3.106019634     C.2   1  noname    0.513728
    5   C5        -1.193274739    -0.104736331     1.717164626     C.2   1  noname   -0.726255
    6   C6        -0.000022615     0.000093665     0.973655539     C.2   1  noname    0.674950
    7   N7        -0.000011541     0.000201180    -0.395495357   N.pl3   1  noname   -0.246893
    8   C8        -1.215879159     0.019943236    -1.201178257     C.3   1  noname   -0.070123
    9   C9        -0.690511504     0.327944299    -2.603049351     C.3   1  noname   -0.226832
   10   C10        0.690508170    -0.328050882    -2.602979251     C.3   1  noname   -0.226776
   11   C11        1.215866176    -0.019781881    -1.201160348     C.3   1  noname   -0.070168
   12   H12        2.155745258     0.206175576     1.226069062       H   1  noname    0.198081
   13   H13        2.053336107     0.181474961     3.682094507       H   1  noname    0.046026
   14   H14       -2.053286392    -0.181736639     3.682053938       H   1  noname    0.046026
   15   H15       -2.155778775    -0.205953001     1.226023514       H   1  noname    0.198090
   16   H16       -1.735962175    -0.950046559    -1.169736915       H   1  noname    0.095277
   17   H17       -1.912720173     0.785224968    -0.838820181       H   1  noname    0.095350
   18   H18       -0.591063115     1.410980370    -2.731496506       H   1  noname    0.123628
   19   H19       -1.350156965    -0.048108002    -3.390020218       H   1  noname    0.106929
   20   H20        1.350159196     0.047847429    -3.390019386       H   1  noname    0.106922
   21   H21        0.591061107    -1.411112149    -2.731215592       H   1  noname    0.123612
   22   H22        1.912653315    -0.785029927    -0.838627619       H   1  noname    0.095372
   23   H23        1.736009167     0.950183066    -1.169919474       H   1  noname    0.095272


@<TRIPOS>BOND
    1      1      2    2
    2      2      3    1
    3      3      4    2
    4      4      5    1
    5      5      6    2
    6      6      7    1
    7      7      8    1
    8      8      9    1
    9      9     10    1
   10     10     11    1
   11      6      1    1
   12     11      7    1
   13      1     12    1
   14      2     13    1
   15      4     14    1
   16      5     15    1
   17      8     16    1
   18      8     17    1
   19      9     18    1
   20      9     19    1
   21     10     20    1
   22     10     21    1
   23     11     22    1
   24     11     23    1
#
#	File Created by: Spartan'20 Export
#

@<TRIPOS>MOLECULE
M0444
26 27
SMALL
USER_CHARGES


@<TRIPOS>ATOM
    1   C1         1.154173813    -0.314817028     2.072273470     C.2   1  noname   -0.732490
    2   C2         1.096179364    -0.293762569     3.461140887     C.2   1  noname    0.513641
    3   N3         0.000125522     0.003791318     4.183096166     N.2   1  noname   -0.741604
    4   C4        -1.095858450     0.298473563     3.460133224     C.2   1  noname    0.514928
    5   C5        -1.153724843     0.314275215     2.071164857     C.2   1  noname   -0.733902
    6   C6         0.000285304    -0.001517331     1.323621502     C.2   1  noname    0.723324
    7   N7         0.000222208    -0.004320205    -0.052539274   N.pl3   1  noname   -0.381039
    8   C8        -1.249778682    -0.018615357    -0.805629442     C.3   1  noname    0.035223
    9   C9        -1.032646148    -0.728797932    -2.137558658     C.3   1  noname   -0.318266
   10   C10       -0.000565766     0.002300191    -3.008835836     C.3   1  noname   -0.000872
   11   C11        1.032421476     0.729168511    -2.135129541     C.3   1  noname   -0.316237
   12   C12        1.250006728     0.013183661    -0.806366895     C.3   1  noname    0.033087
   13   H13        2.078077901    -0.612751276     1.588189142       H   1  noname    0.194212
   14   H14        1.987406753    -0.542347352     4.036248210       H   1  noname    0.047037
   15   H15       -1.987158245     0.549120151     4.034328615       H   1  noname    0.046861
   16   H16       -2.077698605     0.609907558     1.586002591       H   1  noname    0.194092
   17   H17       -1.997750034    -0.563472675    -0.220970336       H   1  noname    0.088679
   18   H18       -1.643034319     0.998015849    -0.971411662       H   1  noname    0.082707
   19   H19       -1.989991595    -0.823775325    -2.661729914       H   1  noname    0.102001
   20   H20       -0.690433271    -1.746338201    -1.919217293       H   1  noname    0.129344
   21   H21        0.497816361    -0.718480295    -3.666323569       H   1  noname    0.058551
   22   H22       -0.499648692     0.726252889    -3.662279084       H   1  noname    0.058371
   23   H23        1.989515519     0.825925116    -2.659476891       H   1  noname    0.101680
   24   H24        0.690786773     1.745918448    -1.912274803       H   1  noname    0.128698
   25   H25        1.642976725    -1.002765093    -0.976676810       H   1  noname    0.082695
   26   H26        1.998294204     0.555428167    -0.219778656       H   1  noname    0.089281


@<TRIPOS>BOND
    1      1      2    2
    2      2      3    1
    3      3      4    2
    4      4      5    1
    5      5      6    2
    6      6      7    1
    7      7      8    1
    8      8      9    1
    9      9     10    1
   10     10     11    1
   11     11     12    1
   12      6      1    1
   13     12      7    1
   14      1     13    1
   15      2     14    1
   16      4     15    1
   17      5     16    1
   18      8     17    1
   19      8     18    1
   20      9     19    1
   21      9     20    1
   22     10     21    1
   23     10     22    1
   24     11     23    1
   25     11     24    1
   26     12     25    1
   27     12     26    1
#
#	File Created by: Spartan'20 Export
#

@<TRIPOS>MOLECULE
M0445
10 10
SMALL
USER_CHARGES


@<TRIPOS>ATOM
    1   C1         1.136149864     0.000000000     0.697846000     C.2   1  noname    0.137869
    2   C2         1.136149767     0.000000000    -0.697849125     C.2   1  noname    0.138015
    3   N3        -0.000000650     0.000000000    -1.417470888     N.2   1  noname   -0.446780
    4   C4        -1.136155433     0.000000000    -0.697847798     C.2   1  noname    0.137706
    5   C5        -1.136154273     0.000000000     0.697844176     C.2   1  noname    0.138137
    6   N6         0.000000560     0.000000000     1.417464907     N.2   1  noname   -0.446988
    7   H7         2.068322029     0.000000000     1.258720351       H   1  noname    0.085531
    8   H8         2.068328369     0.000000000    -1.258713394       H   1  noname    0.085489
    9   H9        -2.068323562     0.000000000    -1.258722000       H   1  noname    0.085547
   10   H10       -2.068316670     0.000000000     1.258727771       H   1  noname    0.085474


@<TRIPOS>BOND
    1      1      2    2
    2      2      3    1
    3      3      4    2
    4      4      5    1
    5      5      6    2
    6      6      1    1
    7      1      7    1
    8      2      8    1
    9      4      9    1
   10      5     10    1
#
#	File Created by: Spartan'20 Export
#

@<TRIPOS>MOLECULE
M0446
10 10
SMALL
USER_CHARGES


@<TRIPOS>ATOM
    1   C1         0.000001269     0.000000000    -1.141155704     C.2   1  noname   -0.768122
    2   C2        -1.186661779     0.000000000    -0.412353606     C.2   1  noname    0.626292
    3   N3        -1.203505777     0.000000000     0.931679823     N.2   1  noname   -0.804400
    4   C4        -0.000002796     0.000000000     1.526730013     C.2   1  noname    0.798938
    5   N5         1.203497247     0.000000000     0.931672503     N.2   1  noname   -0.804404
    6   C6         1.186663432     0.000000000    -0.412359395     C.2   1  noname    0.626293
    7   H7        -0.000004981     0.000000000    -2.226457570       H   1  noname    0.232143
    8   H8        -2.156525454     0.000000000    -0.906031371       H   1  noname    0.042503
    9   H9         0.000004640     0.000000000     2.614302410       H   1  noname    0.008252
   10   H10        2.156534199     0.000000000    -0.906027103       H   1  noname    0.042504


@<TRIPOS>BOND
    1      1      2    2
    2      2      3    1
    3      3      4    2
    4      4      5    1
    5      5      6    2
    6      6      1    1
    7      1      7    1
    8      2      8    1
    9      4      9    1
   10      6     10    1
#
#	File Created by: Spartan'20 Export
#

@<TRIPOS>MOLECULE
M0447
8 8
SMALL
USER_CHARGES


@<TRIPOS>ATOM
    1   C1        -0.049675250     0.000000000     0.782968740     C.2   1  noname   -0.429487
    2   C2         1.093339818     0.000000000    -0.049162848     C.2   1  noname    0.275846
    3   N3         0.776719569     0.000000000    -1.339551232     N.2   1  noname   -0.344640
    4   O4        -0.613449533     0.000000000    -1.371253542     O.3   1  noname   -0.112962
    5   C5        -1.087029802     0.000000000    -0.102392342     C.2   1  noname    0.144023
    6   H6        -0.096123388     0.000000000     1.861479949       H   1  noname    0.206188
    7   H7         2.139655281     0.000000000     0.227178597       H   1  noname    0.108063
    8   H8        -2.163436695     0.000000000    -0.009267322       H   1  noname    0.152970


@<TRIPOS>BOND
    1      1      2    1
    2      2      3    2
    3      3      4    1
    4      4      5    1
    5      5      1    2
    6      1      6    1
    7      2      7    1
    8      5      8    1
#
#	File Created by: Spartan'20 Export
#

@<TRIPOS>MOLECULE
M0448
8 8
SMALL
USER_CHARGES


@<TRIPOS>ATOM
    1   C1        -0.668442776     0.000000000    -0.814645544     C.2   1  noname   -0.091364
    2   C2         0.668433306     0.000000000    -0.814652048     C.2   1  noname   -0.091387
    3   O3         1.113724490     0.000000000     0.496813159     O.3   1  noname   -0.337845
    4   C4         0.000003308     0.000000000     1.307778758     C.2   1  noname    0.993659
    5   O5        -0.000004857     0.000000000     2.508691891     O.2   1  noname   -0.594808
    6   O6        -1.113717385     0.000000000     0.496815698     O.3   1  noname   -0.337845
    7   H7        -1.415808359     0.000000000    -1.590398972       H   1  noname    0.229792
    8   H8         1.415812272     0.000000000    -1.590402941       H   1  noname    0.229797


@<TRIPOS>BOND
    1      1      2    2
    2      2      3    1
    3      3      4    1
    4      4      5    2
    5      4      6    1
    6      6      1    1
    7      1      7    1
    8      2      8    1
#
#	File Created by: Spartan'20 Export
#

@<TRIPOS>MOLECULE
M0449
11 11
SMALL
USER_CHARGES


@<TRIPOS>ATOM
    1   C1        -1.219332160     0.000000000     0.448366443     C.2   1  noname   -0.674199
    2   C2        -1.163180142     0.000000000    -0.900929594     C.2   1  noname    0.322241
    3   O3         0.000000021     0.000000000    -1.612299174     O.3   1  noname   -0.371813
    4   C4         1.163179431     0.000000000    -0.900926664     C.2   1  noname    0.322244
    5   C5         1.219335290     0.000000000     0.448369327     C.2   1  noname   -0.674202
    6   C6         0.000000660     0.000000000     1.258054645     C.2   1  noname    1.025758
    7   O7        -0.000009076     0.000000000     2.496720524     O.2   1  noname   -0.661886
    8   H8        -2.183204833     0.000000000     0.945976416       H   1  noname    0.229948
    9   H9        -2.020208694     0.000000000    -1.564652754       H   1  noname    0.125980
   10   H10        2.020210274     0.000000000    -1.564648701       H   1  noname    0.125979
   11   H11        2.183209228     0.000000000     0.945969532       H   1  noname    0.229949


@<TRIPOS>BOND
    1      1      2    2
    2      2      3    1
    3      3      4    1
    4      4      5    2
    5      5      6    1
    6      6      7    2
    7      6      1    1
    8      1      8    1
    9      2      9    1
   10      4     10    1
   11      5     11    1
#
#	File Created by: Spartan'20 Export
#

@<TRIPOS>MOLECULE
M0450
8 8
SMALL
USER_CHARGES


@<TRIPOS>ATOM
    1   C1        -0.646185166     0.000000000    -0.802443983     C.2   1  noname    0.088275
    2   C2         0.713868692     0.000000000    -0.731728695     C.2   1  noname   -0.164265
    3   O3         1.068041625     0.000000000     0.592213691     O.3   1  noname   -0.266370
    4   C4        -0.123196263     0.000000000     1.251939344     C.2   1  noname    0.450776
    5   N5        -1.175994982     0.000000000     0.482660043     N.2   1  noname   -0.547905
    6   H6        -1.279541247     0.000000000    -1.677079198       H   1  noname    0.136859
    7   H7         1.521007090     0.000000000    -1.446334066       H   1  noname    0.210501
    8   H8        -0.077999750     0.000000000     2.330772863       H   1  noname    0.092130


@<TRIPOS>BOND
    1      1      2    2
    2      2      3    1
    3      3      4    1
    4      4      5    2
    5      5      1    1
    6      1      6    1
    7      2      7    1
    8      4      8    1
#
#	File Created by: Spartan'20 Export
#

@<TRIPOS>MOLECULE
M0451
8 8
SMALL
USER_CHARGES


@<TRIPOS>ATOM
    1   C1        -0.367695432     0.000000000    -0.926715715     C.2   1  noname    0.141174
    2   C2        -1.121563019     0.000000000     0.222659339     C.2   1  noname   -0.308092
    3   S3        -0.092356309     0.000000000     1.592640388     S.3   1  noname    0.039579
    4   C4         1.274606181     0.000000000     0.537338006     C.2   1  noname    0.155902
    5   N5         0.994868827     0.000000000    -0.749256342     N.2   1  noname   -0.480672
    6   H6        -0.772258414     0.000000000    -1.932429460       H   1  noname    0.116588
    7   H7        -2.198527888     0.000000000     0.321873721       H   1  noname    0.203610
    8   H8         2.282926053     0.000000000     0.933890062       H   1  noname    0.131910


@<TRIPOS>BOND
    1      1      2    2
    2      2      3    1
    3      3      4    1
    4      4      5    2
    5      5      1    1
    6      1      6    1
    7      2      7    1
    8      4      8    1
#
#	File Created by: Spartan'20 Export
#

@<TRIPOS>MOLECULE
M0452
9 9
SMALL
USER_CHARGES


@<TRIPOS>ATOM
    1   C1         0.000006733     0.000000000     1.298320573     C.2   1  noname    0.840537
    2   N2        -1.194637423     0.000000000     0.689706993     N.2   1  noname   -0.865087
    3   C3        -1.124412387     0.000000000    -0.649164954     C.2   1  noname    0.823883
    4   N4        -0.000005299     0.000000000    -1.379413804     N.2   1  noname   -0.855980
    5   C5         1.124407026     0.000000000    -0.649153380     C.2   1  noname    0.823873
    6   N6         1.194647248     0.000000000     0.689718201     N.2   1  noname   -0.865077
    7   H7         0.000000799     0.000000000     2.386066599       H   1  noname    0.029721
    8   H8        -2.066418490     0.000000000    -1.193042465       H   1  noname    0.034065
    9   H9         2.066411796     0.000000000    -1.193037764       H   1  noname    0.034066


@<TRIPOS>BOND
    1      1      2    2
    2      2      3    1
    3      3      4    2
    4      4      5    1
    5      5      6    2
    6      6      1    1
    7      1      7    1
    8      3      8    1
    9      5      9    1
